data/protein/ligand.pdb
 OpenBabel08292514443D

 84 90  0  0  1  0  0  0  0  0999 V2000
   -8.6110   15.0600   27.9540 C   0  0  0  0  0  0  0  0  0  0  0  0
   -7.9390   14.0390   27.9410 O   0  0  0  0  0  0  0  0  0  0  0  0
   -8.4610   15.9230   26.9050 N   0  0  0  0  0  0  0  0  0  0  0  0
   -7.8540   15.3510   25.6960 C   0  0  0  0  0  0  0  0  0  0  0  0
   -8.0750   14.2250   25.3750 H   0  0  0  0  0  0  0  0  0  0  0  0
   -6.7270   15.7280   25.6930 H   0  0  0  0  0  0  0  0  0  0  0  0
   -8.6270   17.3880   27.0110 C   0  0  1  0  0  0  0  0  0  0  0  0
   -8.4320   17.8210   25.9180 H   0  0  0  0  0  0  0  0  0  0  0  0
  -10.0290   17.9100   27.2980 C   0  0  2  0  0  0  0  0  0  0  0  0
  -10.8410   17.5970   26.4920 H   0  0  0  0  0  0  0  0  0  0  0  0
   -9.9290   19.2740   26.9980 O   0  0  0  0  0  0  0  0  0  0  0  0
   -9.1640   19.7880   27.7390 H   0  0  0  0  0  0  0  0  0  0  0  0
  -10.4610   17.6450   28.7330 C   0  0  1  0  0  0  0  0  0  0  0  0
   -9.6830   17.9480   29.5780 H   0  0  0  0  0  0  0  0  0  0  0  0
  -11.6920   18.2540   29.0200 O   0  0  0  0  0  0  0  0  0  0  0  0
  -11.5670   18.9120   29.9960 H   0  0  0  0  0  0  0  0  0  0  0  0
  -10.6570   16.1520   28.9640 C   0  0  2  0  0  0  0  0  0  0  0  0
  -11.2140   16.1260   30.0180 H   0  0  0  0  0  0  0  0  0  0  0  0
   -9.4610   15.2940   29.0040 N   0  0  0  0  0  0  0  0  0  0  0  0
   -9.2710   14.4910   30.2150 C   0  0  0  0  0  0  0  0  0  0  0  0
   -8.1380   14.2000   30.2590 H   0  0  0  0  0  0  0  0  0  0  0  0
  -10.0400   13.6080   30.2010 H   0  0  0  0  0  0  0  0  0  0  0  0
   -8.3810   15.7300   24.3360 C   0  0  0  0  0  0  0  0  0  0  0  0
   -9.7690   15.7120   24.0220 C   0  0  0  0  0  0  0  0  0  0  0  0
  -10.6060   15.7900   24.8500 H   0  0  0  0  0  0  0  0  0  0  0  0
  -10.1950   15.9190   22.6940 C   0  0  0  0  0  0  0  0  0  0  0  0
  -11.3220   15.9460   22.3560 H   0  0  0  0  0  0  0  0  0  0  0  0
   -9.2190   16.1520   21.6930 C   0  0  0  0  0  0  0  0  0  0  0  0
   -9.6080   16.3040   20.3490 C   0  0  0  0  0  0  0  0  0  0  0  0
  -10.7160   16.5210   20.0130 H   0  0  0  0  0  0  0  0  0  0  0  0
   -8.6260   16.5080   19.3490 C   0  0  0  0  0  0  0  0  0  0  0  0
   -8.4120   16.6790   18.1960 H   0  0  0  0  0  0  0  0  0  0  0  0
   -7.2630   16.5620   19.6620 C   0  0  0  0  0  0  0  0  0  0  0  0
   -6.3890   16.9980   18.9800 H   0  0  0  0  0  0  0  0  0  0  0  0
   -6.8600   16.4030   21.0060 C   0  0  0  0  0  0  0  0  0  0  0  0
   -5.7110   16.6850   21.1220 H   0  0  0  0  0  0  0  0  0  0  0  0
   -7.8280   16.1920   22.0220 C   0  0  0  0  0  0  0  0  0  0  0  0
   -7.4080   15.9830   23.3460 C   0  0  0  0  0  0  0  0  0  0  0  0
   -6.3500   16.5060   23.4750 H   0  0  0  0  0  0  0  0  0  0  0  0
   -7.4760   17.9720   27.8940 C   0  0  0  0  0  0  0  0  0  0  0  0
   -7.4270   17.2750   28.8510 H   0  0  0  0  0  0  0  0  0  0  0  0
   -7.3510   19.1530   28.0420 H   0  0  0  0  0  0  0  0  0  0  0  0
   -6.1240   17.8900   27.1930 C   0  0  0  0  0  0  0  0  0  0  0  0
   -5.2260   16.8260   27.4940 C   0  0  0  0  0  0  0  0  0  0  0  0
   -5.2470   16.4710   28.6130 H   0  0  0  0  0  0  0  0  0  0  0  0
   -4.0290   16.6670   26.7500 C   0  0  0  0  0  0  0  0  0  0  0  0
   -3.1240   15.9220   26.8780 H   0  0  0  0  0  0  0  0  0  0  0  0
   -3.7300   17.5850   25.7230 C   0  0  0  0  0  0  0  0  0  0  0  0
   -2.7890   17.4950   25.0040 H   0  0  0  0  0  0  0  0  0  0  0  0
   -4.6070   18.6600   25.4320 C   0  0  0  0  0  0  0  0  0  0  0  0
   -4.2560   19.6460   24.8910 H   0  0  0  0  0  0  0  0  0  0  0  0
   -5.8030   18.8110   26.1630 C   0  0  0  0  0  0  0  0  0  0  0  0
   -6.3920   19.6860   25.6240 H   0  0  0  0  0  0  0  0  0  0  0  0
  -11.7120   15.4510   28.0790 C   0  0  0  0  0  0  0  0  0  0  0  0
  -11.3470   15.1070   27.0030 H   0  0  0  0  0  0  0  0  0  0  0  0
  -12.7580   16.0140   27.9250 H   0  0  0  0  0  0  0  0  0  0  0  0
  -12.3100   14.2480   28.7790 C   0  0  0  0  0  0  0  0  0  0  0  0
  -13.1670   14.4220   29.8980 C   0  0  0  0  0  0  0  0  0  0  0  0
  -13.6160   15.3210   30.5240 H   0  0  0  0  0  0  0  0  0  0  0  0
  -13.7000   13.2810   30.5420 C   0  0  0  0  0  0  0  0  0  0  0  0
  -14.0310   13.2050   31.6780 H   0  0  0  0  0  0  0  0  0  0  0  0
  -13.3740   11.9820   30.0580 C   0  0  0  0  0  0  0  0  0  0  0  0
  -13.7310   11.0840   30.7510 H   0  0  0  0  0  0  0  0  0  0  0  0
  -12.5290   11.8140   28.9440 C   0  0  0  0  0  0  0  0  0  0  0  0
  -11.9180   10.8310   29.2040 H   0  0  0  0  0  0  0  0  0  0  0  0
  -11.9920   12.9540   28.3040 C   0  0  0  0  0  0  0  0  0  0  0  0
  -10.9380   12.6940   27.8450 H   0  0  0  0  0  0  0  0  0  0  0  0
   -9.3740   15.1480   31.5710 C   0  0  0  0  0  0  0  0  0  0  0  0
  -10.2280   14.4920   32.4770 C   0  0  0  0  0  0  0  0  0  0  0  0
  -11.2220   13.8650   32.3280 H   0  0  0  0  0  0  0  0  0  0  0  0
  -10.2720   14.9260   33.8000 C   0  0  0  0  0  0  0  0  0  0  0  0
  -11.1560   14.2820   34.7090 C   0  0  0  0  0  0  0  0  0  0  0  0
  -11.8850   13.3580   34.5470 H   0  0  0  0  0  0  0  0  0  0  0  0
  -11.2450   14.7480   36.0440 C   0  0  0  0  0  0  0  0  0  0  0  0
  -11.9930   14.1080   36.7120 H   0  0  0  0  0  0  0  0  0  0  0  0
  -10.4350   15.8370   36.4510 C   0  0  0  0  0  0  0  0  0  0  0  0
  -10.4050   15.4710   37.5820 H   0  0  0  0  0  0  0  0  0  0  0  0
   -9.5400   16.4750   35.5530 C   0  0  0  0  0  0  0  0  0  0  0  0
   -8.6550   17.0480   36.0870 H   0  0  0  0  0  0  0  0  0  0  0  0
   -9.4550   16.0280   34.2120 C   0  0  0  0  0  0  0  0  0  0  0  0
   -8.6050   16.6910   33.2880 C   0  0  0  0  0  0  0  0  0  0  0  0
   -8.1530   17.7260   33.6320 H   0  0  0  0  0  0  0  0  0  0  0  0
   -8.5740   16.2520   31.9620 C   0  0  0  0  0  0  0  0  0  0  0  0
   -7.9520   16.6920   31.0620 H   0  0  0  0  0  0  0  0  0  0  0  0
  1 19  1  0  0  0  0
  2  1  2  0  0  0  0
  3  7  1  0  0  0  0
  3  1  1  0  0  0  0
  4  3  1  0  0  0  0
  5  4  1  0  0  0  0
  6  4  1  0  0  0  0
  7  8  1  6  0  0  0
  7  9  1  0  0  0  0
  7 40  1  0  0  0  0
  9 10  1  6  0  0  0
  9 13  1  0  0  0  0
 11  9  1  0  0  0  0
 11 12  1  0  0  0  0
 13 17  1  0  0  0  0
 13 15  1  0  0  0  0
 13 14  1  1  0  0  0
 15 16  1  0  0  0  0
 17 19  1  0  0  0  0
 17 18  1  1  0  0  0
 19 20  1  0  0  0  0
 20 21  1  0  0  0  0
 20 68  1  0  0  0  0
 22 20  1  0  0  0  0
 23  4  1  0  0  0  0
 24 23  1  0  0  0  0
 24 25  1  0  0  0  0
 26 24  2  0  0  0  0
 27 26  1  0  0  0  0
 28 37  1  0  0  0  0
 28 26  1  0  0  0  0
 29 28  2  0  0  0  0
 30 29  1  0  0  0  0
 31 33  2  0  0  0  0
 31 29  1  0  0  0  0
 32 31  1  0  0  0  0
 33 35  1  0  0  0  0
 34 33  1  0  0  0  0
 35 36  1  0  0  0  0
 35 37  2  0  0  0  0
 37 38  1  0  0  0  0
 38 39  1  0  0  0  0
 38 23  2  0  0  0  0
 40 42  1  0  0  0  0
 40 41  1  0  0  0  0
 43 44  1  0  0  0  0
 43 40  1  0  0  0  0
 44 45  1  0  0  0  0
 46 47  1  0  0  0  0
 46 44  2  0  0  0  0
 48 46  1  0  0  0  0
 49 48  1  0  0  0  0
 50 48  2  0  0  0  0
 50 52  1  0  0  0  0
 51 50  1  0  0  0  0
 52 43  2  0  0  0  0
 53 52  1  0  0  0  0
 54 57  1  0  0  0  0
 54 17  1  0  0  0  0
 55 54  1  0  0  0  0
 56 54  1  0  0  0  0
 57 58  1  0  0  0  0
 58 59  1  0  0  0  0
 58 60  2  0  0  0  0
 60 61  1  0  0  0  0
 62 60  1  0  0  0  0
 62 63  1  0  0  0  0
 64 65  1  0  0  0  0
 64 62  2  0  0  0  0
 66 57  2  0  0  0  0
 66 64  1  0  0  0  0
 67 66  1  0  0  0  0
 68 83  2  0  0  0  0
 68 69  1  0  0  0  0
 69 71  2  0  0  0  0
 70 69  1  0  0  0  0
 71 80  1  0  0  0  0
 71 72  1  0  0  0  0
 72 74  2  0  0  0  0
 73 72  1  0  0  0  0
 74 76  1  0  0  0  0
 74 75  1  0  0  0  0
 76 77  1  0  0  0  0
 78 79  1  0  0  0  0
 78 76  2  0  0  0  0
 80 78  1  0  0  0  0
 81 82  1  0  0  0  0
 81 80  2  0  0  0  0
 83 81  1  0  0  0  0
 84 83  1  0  0  0  0
M  END
$$$$
