
     RDKit          3D

 51 53  0  0  0  0  0  0  0  0999 V2000
    4.6011   -0.8242   -1.4230 C   0  0  0  0  0  0  0  0  0  0  0  0
    3.4209   -0.4624   -0.4989 C   0  0  1  0  0  0  0  0  0  0  0  0
    3.0349    1.0195   -0.7176 C   0  0  0  0  0  0  0  0  0  0  0  0
    1.7403    1.3551    0.0215 C   0  0  0  0  0  0  0  0  0  0  0  0
    0.5599    0.4948   -0.5028 C   0  0  1  0  0  0  0  0  0  0  0  0
    0.9537   -0.9582   -0.7730 C   0  0  0  0  0  0  0  0  0  0  0  0
    2.2449   -1.3540   -0.8528 C   0  0  0  0  0  0  0  0  0  0  0  0
   -0.1242   -1.9032   -1.2524 C   0  0  0  0  0  0  0  0  0  0  0  0
   -1.4053   -1.7725   -0.4250 C   0  0  0  0  0  0  0  0  0  0  0  0
   -1.8585   -0.2935   -0.3094 C   0  0  2  0  0  0  0  0  0  0  0  0
   -0.7386    0.5755    0.3917 C   0  0  2  0  0  0  0  0  0  0  0  0
   -1.2126    2.0551    0.4570 C   0  0  0  0  0  0  0  0  0  0  0  0
   -2.5855    2.2095    1.1094 C   0  0  0  0  0  0  0  0  0  0  0  0
   -3.6452    1.4235    0.3365 C   0  0  0  0  0  0  0  0  0  0  0  0
   -3.3346   -0.0998    0.2342 C   0  0  1  0  0  0  0  0  0  0  0  0
   -4.3559   -0.6792   -0.7793 C   0  0  0  0  0  0  0  0  0  0  0  0
   -3.5899   -0.8103    1.5606 C   0  0  0  0  0  0  0  0  0  0  0  0
   -3.9509   -0.1714    2.5854 O   0  0  0  0  0  0  0  0  0  0  0  0
   -3.4978   -2.1950    1.6437 O   0  0  0  0  0  0  0  0  0  0  0  0
   -0.4154    0.0735    1.8328 C   0  0  0  0  0  0  0  0  0  0  0  0
    3.8027   -0.7281    0.9523 C   0  0  0  0  0  0  0  0  0  0  0  0
    4.8283   -0.1196    1.5615 C   0  0  0  0  0  0  0  0  0  0  0  0
    4.9380   -1.8677   -1.2389 H   0  0  0  0  0  0  0  0  0  0  0  0
    4.3015   -0.7378   -2.4902 H   0  0  0  0  0  0  0  0  0  0  0  0
    5.4630   -0.1441   -1.2544 H   0  0  0  0  0  0  0  0  0  0  0  0
    2.8886    1.2197   -1.8030 H   0  0  0  0  0  0  0  0  0  0  0  0
    3.8444    1.6956   -0.3673 H   0  0  0  0  0  0  0  0  0  0  0  0
    1.5196    2.4318   -0.1403 H   0  0  0  0  0  0  0  0  0  0  0  0
    1.9092    1.2078    1.1059 H   0  0  0  0  0  0  0  0  0  0  0  0
    0.3070    0.9164   -1.5024 H   0  0  0  0  0  0  0  0  0  0  0  0
    2.4624   -2.3858   -1.1206 H   0  0  0  0  0  0  0  0  0  0  0  0
    0.2159   -2.9612   -1.2006 H   0  0  0  0  0  0  0  0  0  0  0  0
   -0.3476   -1.6729   -2.3167 H   0  0  0  0  0  0  0  0  0  0  0  0
   -2.1797   -2.3866   -0.9249 H   0  0  0  0  0  0  0  0  0  0  0  0
   -1.2311   -2.2150    0.5770 H   0  0  0  0  0  0  0  0  0  0  0  0
   -1.9040    0.0810   -1.3592 H   0  0  0  0  0  0  0  0  0  0  0  0
   -1.2599    2.4840   -0.5689 H   0  0  0  0  0  0  0  0  0  0  0  0
   -0.4909    2.6726    1.0339 H   0  0  0  0  0  0  0  0  0  0  0  0
   -2.8646    3.2855    1.1004 H   0  0  0  0  0  0  0  0  0  0  0  0
   -2.5492    1.8952    2.1722 H   0  0  0  0  0  0  0  0  0  0  0  0
   -4.6361    1.5879    0.8152 H   0  0  0  0  0  0  0  0  0  0  0  0
   -3.7133    1.8623   -0.6849 H   0  0  0  0  0  0  0  0  0  0  0  0
   -4.1897   -0.2656   -1.7973 H   0  0  0  0  0  0  0  0  0  0  0  0
   -5.3945   -0.4241   -0.4738 H   0  0  0  0  0  0  0  0  0  0  0  0
   -4.3041   -1.7850   -0.8432 H   0  0  0  0  0  0  0  0  0  0  0  0
    0.1836   -0.8603    1.8190 H   0  0  0  0  0  0  0  0  0  0  0  0
    0.1607    0.8294    2.4046 H   0  0  0  0  0  0  0  0  0  0  0  0
   -1.3215   -0.1184    2.4284 H   0  0  0  0  0  0  0  0  0  0  0  0
    3.2181   -1.4359    1.5356 H   0  0  0  0  0  0  0  0  0  0  0  0
    5.4510    0.6003    1.0415 H   0  0  0  0  0  0  0  0  0  0  0  0
    5.0507   -0.3441    2.5996 H   0  0  0  0  0  0  0  0  0  0  0  0
  2  1  1  6
  2  3  1  0
  3  4  1  0
  4  5  1  0
  5  6  1  0
  6  7  2  0
  6  8  1  0
  8  9  1  0
  9 10  1  0
 10 11  1  0
 11 12  1  0
 12 13  1  0
 13 14  1  0
 14 15  1  0
 15 16  1  6
 15 17  1  0
 17 18  2  0
 17 19  1  0
 11 20  1  1
  2 21  1  0
 21 22  2  0
  7  2  1  0
 11  5  1  0
 15 10  1  0
  1 23  1  0
  1 24  1  0
  1 25  1  0
  3 26  1  0
  3 27  1  0
  4 28  1  0
  4 29  1  0
  5 30  1  6
  7 31  1  0
  8 32  1  0
  8 33  1  0
  9 34  1  0
  9 35  1  0
 10 36  1  6
 12 37  1  0
 12 38  1  0
 13 39  1  0
 13 40  1  0
 14 41  1  0
 14 42  1  0
 16 43  1  0
 16 44  1  0
 16 45  1  0
 20 46  1  0
 20 47  1  0
 20 48  1  0
 21 49  1  0
 22 50  1  0
 22 51  1  0
M  CHG  1  19  -1
M  END
$$$$
