
     RDKit          3D

 51 53  0  0  0  0  0  0  0  0999 V2000
    4.7230   -0.3394   -1.1704 C   0  0  0  0  0  0  0  0  0  0  0  0
    3.4759   -0.2905   -0.2649 C   0  0  1  0  0  0  0  0  0  0  0  0
    3.0664    1.1845   -0.0368 C   0  0  0  0  0  0  0  0  0  0  0  0
    1.7077    1.2639    0.6571 C   0  0  0  0  0  0  0  0  0  0  0  0
    0.6005    0.6276   -0.2257 C   0  0  1  0  0  0  0  0  0  0  0  0
    1.0470   -0.6820   -0.8731 C   0  0  0  0  0  0  0  0  0  0  0  0
    2.3504   -1.0356   -0.9607 C   0  0  0  0  0  0  0  0  0  0  0  0
    0.0412   -1.4218   -1.7197 C   0  0  0  0  0  0  0  0  0  0  0  0
   -1.3018   -1.5551   -1.0056 C   0  0  0  0  0  0  0  0  0  0  0  0
   -1.8185   -0.1919   -0.4779 C   0  0  2  0  0  0  0  0  0  0  0  0
   -0.7892    0.4790    0.5134 C   0  0  2  0  0  0  0  0  0  0  0  0
   -1.2961    1.9139    0.9201 C   0  0  0  0  0  0  0  0  0  0  0  0
   -2.7995    2.1636    0.7243 C   0  0  0  0  0  0  0  0  0  0  0  0
   -3.6172    0.9166    1.0400 C   0  0  0  0  0  0  0  0  0  0  0  0
   -3.3260   -0.2437    0.0329 C   0  0  1  0  0  0  0  0  0  0  0  0
   -4.2691   -0.0529   -1.1858 C   0  0  0  0  0  0  0  0  0  0  0  0
   -3.6949   -1.5899    0.6659 C   0  0  0  0  0  0  0  0  0  0  0  0
   -3.7934   -1.7277    1.9147 O   0  0  0  0  0  0  0  0  0  0  0  0
   -3.9420   -2.6976   -0.1392 O   0  0  0  0  0  0  0  0  0  0  0  0
   -0.6099   -0.3975    1.7899 C   0  0  0  0  0  0  0  0  0  0  0  0
    3.7696   -0.9942    1.0546 C   0  0  0  0  0  0  0  0  0  0  0  0
    4.7391   -0.6036    1.8918 C   0  0  0  0  0  0  0  0  0  0  0  0
    5.5529    0.2602   -0.7395 H   0  0  0  0  0  0  0  0  0  0  0  0
    4.4907    0.0727   -2.1766 H   0  0  0  0  0  0  0  0  0  0  0  0
    5.0764   -1.3862   -1.2957 H   0  0  0  0  0  0  0  0  0  0  0  0
    3.8252    1.7162    0.5770 H   0  0  0  0  0  0  0  0  0  0  0  0
    3.0020    1.7192   -1.0113 H   0  0  0  0  0  0  0  0  0  0  0  0
    1.7933    0.7593    1.6388 H   0  0  0  0  0  0  0  0  0  0  0  0
    1.4747    2.3320    0.8519 H   0  0  0  0  0  0  0  0  0  0  0  0
    0.4507    1.3280   -1.0789 H   0  0  0  0  0  0  0  0  0  0  0  0
    2.6138   -1.9391   -1.5067 H   0  0  0  0  0  0  0  0  0  0  0  0
    0.4013   -2.4429   -1.9753 H   0  0  0  0  0  0  0  0  0  0  0  0
   -0.0994   -0.8647   -2.6714 H   0  0  0  0  0  0  0  0  0  0  0  0
   -2.0244   -1.9746   -1.7368 H   0  0  0  0  0  0  0  0  0  0  0  0
   -1.2017   -2.2876   -0.1769 H   0  0  0  0  0  0  0  0  0  0  0  0
   -1.8182    0.4788   -1.3693 H   0  0  0  0  0  0  0  0  0  0  0  0
   -1.0379    2.1336    1.9792 H   0  0  0  0  0  0  0  0  0  0  0  0
   -0.7819    2.7001    0.3258 H   0  0  0  0  0  0  0  0  0  0  0  0
   -3.1215    2.9931    1.3911 H   0  0  0  0  0  0  0  0  0  0  0  0
   -2.9940    2.4909   -0.3195 H   0  0  0  0  0  0  0  0  0  0  0  0
   -3.3866    0.6351    2.0884 H   0  0  0  0  0  0  0  0  0  0  0  0
   -4.6981    1.1806    1.0348 H   0  0  0  0  0  0  0  0  0  0  0  0
   -4.1305    0.9445   -1.6534 H   0  0  0  0  0  0  0  0  0  0  0  0
   -5.3345   -0.1394   -0.8789 H   0  0  0  0  0  0  0  0  0  0  0  0
   -4.0770   -0.8174   -1.9679 H   0  0  0  0  0  0  0  0  0  0  0  0
   -0.0220   -1.3138    1.5755 H   0  0  0  0  0  0  0  0  0  0  0  0
   -0.0856    0.1515    2.5980 H   0  0  0  0  0  0  0  0  0  0  0  0
   -1.5729   -0.7101    2.2207 H   0  0  0  0  0  0  0  0  0  0  0  0
    3.1656   -1.8499    1.3475 H   0  0  0  0  0  0  0  0  0  0  0  0
    4.8993   -1.1401    2.8213 H   0  0  0  0  0  0  0  0  0  0  0  0
    5.3772    0.2439    1.6654 H   0  0  0  0  0  0  0  0  0  0  0  0
  2  1  1  6
  2  3  1  0
  3  4  1  0
  4  5  1  0
  5  6  1  0
  6  7  2  0
  6  8  1  0
  8  9  1  0
  9 10  1  0
 10 11  1  0
 11 12  1  0
 12 13  1  0
 13 14  1  0
 14 15  1  0
 15 16  1  6
 15 17  1  0
 17 18  2  0
 17 19  1  0
 11 20  1  1
  2 21  1  0
 21 22  2  0
  7  2  1  0
 11  5  1  0
 15 10  1  0
  1 23  1  0
  1 24  1  0
  1 25  1  0
  3 26  1  0
  3 27  1  0
  4 28  1  0
  4 29  1  0
  5 30  1  6
  7 31  1  0
  8 32  1  0
  8 33  1  0
  9 34  1  0
  9 35  1  0
 10 36  1  6
 12 37  1  0
 12 38  1  0
 13 39  1  0
 13 40  1  0
 14 41  1  0
 14 42  1  0
 16 43  1  0
 16 44  1  0
 16 45  1  0
 20 46  1  0
 20 47  1  0
 20 48  1  0
 21 49  1  0
 22 50  1  0
 22 51  1  0
M  CHG  1  19  -1
M  END
$$$$
