
     RDKit          3D

 51 53  0  0  0  0  0  0  0  0999 V2000
    4.2597   -1.2375    0.1610 C   0  0  0  0  0  0  0  0  0  0  0  0
    3.3909    0.0365    0.2410 C   0  0  1  0  0  0  0  0  0  0  0  0
    2.7471    0.3720   -1.1224 C   0  0  0  0  0  0  0  0  0  0  0  0
    1.6672   -0.6393   -1.5187 C   0  0  0  0  0  0  0  0  0  0  0  0
    0.5552   -0.8269   -0.4420 C   0  0  1  0  0  0  0  0  0  0  0  0
    1.0568   -0.5960    0.9839 C   0  0  0  0  0  0  0  0  0  0  0  0
    2.3127   -0.1936    1.2787 C   0  0  0  0  0  0  0  0  0  0  0  0
    0.0836   -0.8585    2.1039 C   0  0  0  0  0  0  0  0  0  0  0  0
   -1.2122   -0.0845    1.8647 C   0  0  0  0  0  0  0  0  0  0  0  0
   -1.8065   -0.4142    0.4690 C   0  0  2  0  0  0  0  0  0  0  0  0
   -0.7968   -0.0401   -0.6968 C   0  0  2  0  0  0  0  0  0  0  0  0
   -1.4256   -0.5011   -2.0485 C   0  0  0  0  0  0  0  0  0  0  0  0
   -2.8435    0.0302   -2.2689 C   0  0  0  0  0  0  0  0  0  0  0  0
   -3.7808   -0.4072   -1.1442 C   0  0  0  0  0  0  0  0  0  0  0  0
   -3.3062    0.0511    0.2656 C   0  0  1  0  0  0  0  0  0  0  0  0
   -4.2360   -0.6574    1.2846 C   0  0  0  0  0  0  0  0  0  0  0  0
   -3.5075    1.5499    0.4646 C   0  0  0  0  0  0  0  0  0  0  0  0
   -4.0420    2.2604   -0.4290 O   0  0  0  0  0  0  0  0  0  0  0  0
   -3.1814    2.1473    1.6763 O   0  0  0  0  0  0  0  0  0  0  0  0
   -0.4950    1.4827   -0.7642 C   0  0  0  0  0  0  0  0  0  0  0  0
    4.2515    1.2119    0.6884 C   0  0  0  0  0  0  0  0  0  0  0  0
    5.3163    1.6389   -0.0031 C   0  0  0  0  0  0  0  0  0  0  0  0
    3.6346   -2.1416    0.0020 H   0  0  0  0  0  0  0  0  0  0  0  0
    4.9908   -1.1717   -0.6725 H   0  0  0  0  0  0  0  0  0  0  0  0
    4.8224   -1.3821    1.1090 H   0  0  0  0  0  0  0  0  0  0  0  0
    2.3026    1.3885   -1.0825 H   0  0  0  0  0  0  0  0  0  0  0  0
    3.5219    0.3919   -1.9198 H   0  0  0  0  0  0  0  0  0  0  0  0
    2.1559   -1.6199   -1.7047 H   0  0  0  0  0  0  0  0  0  0  0  0
    1.2610   -0.3340   -2.4989 H   0  0  0  0  0  0  0  0  0  0  0  0
    0.2961   -1.9094   -0.4831 H   0  0  0  0  0  0  0  0  0  0  0  0
    2.6027   -0.1060    2.3237 H   0  0  0  0  0  0  0  0  0  0  0  0
    0.4972   -0.5618    3.0930 H   0  0  0  0  0  0  0  0  0  0  0  0
   -0.1318   -1.9482    2.1457 H   0  0  0  0  0  0  0  0  0  0  0  0
   -1.0065    1.0001    1.9669 H   0  0  0  0  0  0  0  0  0  0  0  0
   -1.9121   -0.3690    2.6742 H   0  0  0  0  0  0  0  0  0  0  0  0
   -1.8688   -1.5281    0.4458 H   0  0  0  0  0  0  0  0  0  0  0  0
   -1.4554   -1.6126   -2.0912 H   0  0  0  0  0  0  0  0  0  0  0  0
   -0.8254   -0.1586   -2.9146 H   0  0  0  0  0  0  0  0  0  0  0  0
   -2.8352    1.1342   -2.3728 H   0  0  0  0  0  0  0  0  0  0  0  0
   -3.2297   -0.3771   -3.2286 H   0  0  0  0  0  0  0  0  0  0  0  0
   -4.8027   -0.0219   -1.3573 H   0  0  0  0  0  0  0  0  0  0  0  0
   -3.8510   -1.5184   -1.1737 H   0  0  0  0  0  0  0  0  0  0  0  0
   -5.3033   -0.4713    1.0331 H   0  0  0  0  0  0  0  0  0  0  0  0
   -4.0858   -0.2855    2.3188 H   0  0  0  0  0  0  0  0  0  0  0  0
   -4.0714   -1.7565    1.2806 H   0  0  0  0  0  0  0  0  0  0  0  0
   -1.4067    2.0974   -0.8335 H   0  0  0  0  0  0  0  0  0  0  0  0
    0.0973    1.7210   -1.6712 H   0  0  0  0  0  0  0  0  0  0  0  0
    0.0825    1.8265    0.1179 H   0  0  0  0  0  0  0  0  0  0  0  0
    3.9987    1.7465    1.6010 H   0  0  0  0  0  0  0  0  0  0  0  0
    5.6222    1.1580   -0.9261 H   0  0  0  0  0  0  0  0  0  0  0  0
    5.8922    2.4849    0.3577 H   0  0  0  0  0  0  0  0  0  0  0  0
  2  1  1  6
  2  3  1  0
  3  4  1  0
  4  5  1  0
  5  6  1  0
  6  7  2  0
  6  8  1  0
  8  9  1  0
  9 10  1  0
 10 11  1  0
 11 12  1  0
 12 13  1  0
 13 14  1  0
 14 15  1  0
 15 16  1  1
 15 17  1  0
 17 18  2  0
 17 19  1  0
 11 20  1  6
  2 21  1  0
 21 22  2  0
  7  2  1  0
 11  5  1  0
 15 10  1  0
  1 23  1  0
  1 24  1  0
  1 25  1  0
  3 26  1  0
  3 27  1  0
  4 28  1  0
  4 29  1  0
  5 30  1  1
  7 31  1  0
  8 32  1  0
  8 33  1  0
  9 34  1  0
  9 35  1  0
 10 36  1  1
 12 37  1  0
 12 38  1  0
 13 39  1  0
 13 40  1  0
 14 41  1  0
 14 42  1  0
 16 43  1  0
 16 44  1  0
 16 45  1  0
 20 46  1  0
 20 47  1  0
 20 48  1  0
 21 49  1  0
 22 50  1  0
 22 51  1  0
M  CHG  1  19  -1
M  END
$$$$
