
     RDKit          3D

 51 53  0  0  0  0  0  0  0  0999 V2000
    4.6442   -0.9583   -1.1764 C   0  0  0  0  0  0  0  0  0  0  0  0
    3.4357   -0.5165   -0.3267 C   0  0  1  0  0  0  0  0  0  0  0  0
    3.0644    0.9421   -0.6838 C   0  0  0  0  0  0  0  0  0  0  0  0
    1.7476    1.3422   -0.0198 C   0  0  0  0  0  0  0  0  0  0  0  0
    0.5811    0.4428   -0.5082 C   0  0  1  0  0  0  0  0  0  0  0  0
    0.9766   -1.0289   -0.6403 C   0  0  0  0  0  0  0  0  0  0  0  0
    2.2677   -1.4327   -0.6426 C   0  0  0  0  0  0  0  0  0  0  0  0
   -0.0894   -2.0091   -1.0733 C   0  0  0  0  0  0  0  0  0  0  0  0
   -1.3966   -1.8056   -0.3035 C   0  0  0  0  0  0  0  0  0  0  0  0
   -1.8461   -0.3212   -0.3297 C   0  0  2  0  0  0  0  0  0  0  0  0
   -0.7460    0.6022    0.3320 C   0  0  2  0  0  0  0  0  0  0  0  0
   -1.2146    2.0829    0.2551 C   0  0  0  0  0  0  0  0  0  0  0  0
   -2.6077    2.2952    0.8454 C   0  0  0  0  0  0  0  0  0  0  0  0
   -3.6449    1.4483    0.1072 C   0  0  0  0  0  0  0  0  0  0  0  0
   -3.3386   -0.0787    0.1456 C   0  0  1  0  0  0  0  0  0  0  0  0
   -4.3284   -0.7404   -0.8486 C   0  0  0  0  0  0  0  0  0  0  0  0
   -3.6413   -0.6730    1.5183 C   0  0  0  0  0  0  0  0  0  0  0  0
   -4.0331    0.0517    2.4723 O   0  0  0  0  0  0  0  0  0  0  0  0
   -3.5589   -2.0457    1.7221 O   0  0  0  0  0  0  0  0  0  0  0  0
   -0.4734    0.2243    1.8207 C   0  0  0  0  0  0  0  0  0  0  0  0
    3.7677   -0.6581    1.1538 C   0  0  0  0  0  0  0  0  0  0  0  0
    4.7754   -0.0019    1.7431 C   0  0  0  0  0  0  0  0  0  0  0  0
    5.5034   -0.2681   -1.0377 H   0  0  0  0  0  0  0  0  0  0  0  0
    4.3807   -0.9627   -2.2566 H   0  0  0  0  0  0  0  0  0  0  0  0
    4.9697   -1.9830   -0.8929 H   0  0  0  0  0  0  0  0  0  0  0  0
    2.9553    1.0492   -1.7867 H   0  0  0  0  0  0  0  0  0  0  0  0
    3.8652    1.6440   -0.3654 H   0  0  0  0  0  0  0  0  0  0  0  0
    1.5378    2.4017   -0.2802 H   0  0  0  0  0  0  0  0  0  0  0  0
    1.8796    1.2877    1.0782 H   0  0  0  0  0  0  0  0  0  0  0  0
    0.3637    0.7780   -1.5481 H   0  0  0  0  0  0  0  0  0  0  0  0
    2.4890   -2.4840   -0.8140 H   0  0  0  0  0  0  0  0  0  0  0  0
    0.2436   -3.0595   -0.9201 H   0  0  0  0  0  0  0  0  0  0  0  0
   -0.2761   -1.8700   -2.1603 H   0  0  0  0  0  0  0  0  0  0  0  0
   -2.1570   -2.4586   -0.7750 H   0  0  0  0  0  0  0  0  0  0  0  0
   -1.2581   -2.1613    0.7377 H   0  0  0  0  0  0  0  0  0  0  0  0
   -1.8548   -0.0376   -1.4086 H   0  0  0  0  0  0  0  0  0  0  0  0
   -0.5095    2.7458    0.8012 H   0  0  0  0  0  0  0  0  0  0  0  0
   -1.2257    2.4228   -0.8047 H   0  0  0  0  0  0  0  0  0  0  0  0
   -2.8811    3.3671    0.7355 H   0  0  0  0  0  0  0  0  0  0  0  0
   -2.6083    2.0726    1.9318 H   0  0  0  0  0  0  0  0  0  0  0  0
   -4.6504    1.6550    0.5367 H   0  0  0  0  0  0  0  0  0  0  0  0
   -3.6768    1.7985   -0.9496 H   0  0  0  0  0  0  0  0  0  0  0  0
   -5.3753   -0.4580   -0.6010 H   0  0  0  0  0  0  0  0  0  0  0  0
   -4.1264   -0.4156   -1.8920 H   0  0  0  0  0  0  0  0  0  0  0  0
   -4.2799   -1.8478   -0.8163 H   0  0  0  0  0  0  0  0  0  0  0  0
   -1.3997    0.0858    2.3997 H   0  0  0  0  0  0  0  0  0  0  0  0
    0.1211   -0.7085    1.9066 H   0  0  0  0  0  0  0  0  0  0  0  0
    0.0871    1.0250    2.3450 H   0  0  0  0  0  0  0  0  0  0  0  0
    3.1605   -1.3123    1.7754 H   0  0  0  0  0  0  0  0  0  0  0  0
    4.9621   -0.1375    2.8034 H   0  0  0  0  0  0  0  0  0  0  0  0
    5.4187    0.6696    1.1847 H   0  0  0  0  0  0  0  0  0  0  0  0
  2  1  1  6
  2  3  1  0
  3  4  1  0
  4  5  1  0
  5  6  1  0
  6  7  2  0
  6  8  1  0
  8  9  1  0
  9 10  1  0
 10 11  1  0
 11 12  1  0
 12 13  1  0
 13 14  1  0
 14 15  1  0
 15 16  1  6
 15 17  1  0
 17 18  2  0
 17 19  1  0
 11 20  1  1
  2 21  1  0
 21 22  2  0
  7  2  1  0
 11  5  1  0
 15 10  1  0
  1 23  1  0
  1 24  1  0
  1 25  1  0
  3 26  1  0
  3 27  1  0
  4 28  1  0
  4 29  1  0
  5 30  1  6
  7 31  1  0
  8 32  1  0
  8 33  1  0
  9 34  1  0
  9 35  1  0
 10 36  1  6
 12 37  1  0
 12 38  1  0
 13 39  1  0
 13 40  1  0
 14 41  1  0
 14 42  1  0
 16 43  1  0
 16 44  1  0
 16 45  1  0
 20 46  1  0
 20 47  1  0
 20 48  1  0
 21 49  1  0
 22 50  1  0
 22 51  1  0
M  CHG  1  19  -1
M  END
$$$$
