
     RDKit          3D

 51 53  0  0  0  0  0  0  0  0999 V2000
    4.2633   -0.5322    1.0127 C   0  0  0  0  0  0  0  0  0  0  0  0
    3.3923   -0.3767   -0.2536 C   0  0  1  0  0  0  0  0  0  0  0  0
    2.5106   -1.6294   -0.4635 C   0  0  0  0  0  0  0  0  0  0  0  0
    1.4140   -1.7615    0.5987 C   0  0  0  0  0  0  0  0  0  0  0  0
    0.5308   -0.4863    0.7475 C   0  0  1  0  0  0  0  0  0  0  0  0
    1.2453    0.8058    0.3630 C   0  0  0  0  0  0  0  0  0  0  0  0
    2.5113    0.8479   -0.1067 C   0  0  0  0  0  0  0  0  0  0  0  0
    0.4849    2.0890    0.5732 C   0  0  0  0  0  0  0  0  0  0  0  0
   -0.8724    2.0139   -0.1232 C   0  0  0  0  0  0  0  0  0  0  0  0
   -1.6763    0.7613    0.3195 C   0  0  2  0  0  0  0  0  0  0  0  0
   -0.8871   -0.5835    0.0542 C   0  0  2  0  0  0  0  0  0  0  0  0
   -1.6810   -1.7928    0.6811 C   0  0  0  0  0  0  0  0  0  0  0  0
   -3.1657   -1.5240    0.9727 C   0  0  0  0  0  0  0  0  0  0  0  0
   -3.7960   -0.6741   -0.1259 C   0  0  0  0  0  0  0  0  0  0  0  0
   -3.1900    0.7673   -0.1710 C   0  0  1  0  0  0  0  0  0  0  0  0
   -4.0251    1.6509    0.7963 C   0  0  0  0  0  0  0  0  0  0  0  0
   -3.3552    1.3587   -1.5746 C   0  0  0  0  0  0  0  0  0  0  0  0
   -3.2524    2.6021   -1.7561 O   0  0  0  0  0  0  0  0  0  0  0  0
   -3.6433    0.5573   -2.6745 O   0  0  0  0  0  0  0  0  0  0  0  0
   -0.6962   -0.8225   -1.4699 C   0  0  0  0  0  0  0  0  0  0  0  0
    4.2957   -0.2210   -1.4734 C   0  0  0  0  0  0  0  0  0  0  0  0
    5.1733    0.7816   -1.6188 C   0  0  0  0  0  0  0  0  0  0  0  0
    3.6391   -0.5921    1.9283 H   0  0  0  0  0  0  0  0  0  0  0  0
    4.8874   -1.4493    0.9470 H   0  0  0  0  0  0  0  0  0  0  0  0
    4.9389    0.3394    1.1429 H   0  0  0  0  0  0  0  0  0  0  0  0
    2.0346   -1.5846   -1.4661 H   0  0  0  0  0  0  0  0  0  0  0  0
    3.1405   -2.5465   -0.4477 H   0  0  0  0  0  0  0  0  0  0  0  0
    0.8033   -2.6547    0.3557 H   0  0  0  0  0  0  0  0  0  0  0  0
    1.8873   -1.9938    1.5763 H   0  0  0  0  0  0  0  0  0  0  0  0
    0.3382   -0.3876    1.8404 H   0  0  0  0  0  0  0  0  0  0  0  0
    2.9564    1.8182   -0.3100 H   0  0  0  0  0  0  0  0  0  0  0  0
    0.3377    2.2455    1.6638 H   0  0  0  0  0  0  0  0  0  0  0  0
    1.0385    2.9699    0.1799 H   0  0  0  0  0  0  0  0  0  0  0  0
   -0.7156    2.0161   -1.2224 H   0  0  0  0  0  0  0  0  0  0  0  0
   -1.4319    2.9368    0.1364 H   0  0  0  0  0  0  0  0  0  0  0  0
   -1.7186    0.8376    1.4316 H   0  0  0  0  0  0  0  0  0  0  0  0
   -1.2276   -2.1081    1.6464 H   0  0  0  0  0  0  0  0  0  0  0  0
   -1.6170   -2.6854    0.0202 H   0  0  0  0  0  0  0  0  0  0  0  0
   -3.7052   -2.4936    1.0438 H   0  0  0  0  0  0  0  0  0  0  0  0
   -3.2733   -1.0172    1.9558 H   0  0  0  0  0  0  0  0  0  0  0  0
   -4.8968   -0.6366    0.0322 H   0  0  0  0  0  0  0  0  0  0  0  0
   -3.6560   -1.2246   -1.0784 H   0  0  0  0  0  0  0  0  0  0  0  0
   -3.6234    2.6840    0.8527 H   0  0  0  0  0  0  0  0  0  0  0  0
   -5.0818    1.7175    0.4563 H   0  0  0  0  0  0  0  0  0  0  0  0
   -4.0248    1.2333    1.8253 H   0  0  0  0  0  0  0  0  0  0  0  0
   -1.6519   -0.8017   -2.0170 H   0  0  0  0  0  0  0  0  0  0  0  0
   -0.2541   -1.8206   -1.6647 H   0  0  0  0  0  0  0  0  0  0  0  0
   -0.0254   -0.0646   -1.9234 H   0  0  0  0  0  0  0  0  0  0  0  0
    4.2445   -0.9570   -2.2723 H   0  0  0  0  0  0  0  0  0  0  0  0
    5.7913    0.8342   -2.5092 H   0  0  0  0  0  0  0  0  0  0  0  0
    5.2851    1.5534   -0.8648 H   0  0  0  0  0  0  0  0  0  0  0  0
  2  1  1  1
  2  3  1  0
  3  4  1  0
  4  5  1  0
  5  6  1  0
  6  7  2  0
  6  8  1  0
  8  9  1  0
  9 10  1  0
 10 11  1  0
 11 12  1  0
 12 13  1  0
 13 14  1  0
 14 15  1  0
 15 16  1  1
 15 17  1  0
 17 18  2  0
 17 19  1  0
 11 20  1  6
  2 21  1  0
 21 22  2  0
  7  2  1  0
 11  5  1  0
 15 10  1  0
  1 23  1  0
  1 24  1  0
  1 25  1  0
  3 26  1  0
  3 27  1  0
  4 28  1  0
  4 29  1  0
  5 30  1  1
  7 31  1  0
  8 32  1  0
  8 33  1  0
  9 34  1  0
  9 35  1  0
 10 36  1  1
 12 37  1  0
 12 38  1  0
 13 39  1  0
 13 40  1  0
 14 41  1  0
 14 42  1  0
 16 43  1  0
 16 44  1  0
 16 45  1  0
 20 46  1  0
 20 47  1  0
 20 48  1  0
 21 49  1  0
 22 50  1  0
 22 51  1  0
M  CHG  1  19  -1
M  END
$$$$
