
     RDKit          3D

 51 53  0  0  0  0  0  0  0  0999 V2000
    4.3412   -0.4340    1.2552 C   0  0  0  0  0  0  0  0  0  0  0  0
    3.4812   -0.0264    0.0404 C   0  0  1  0  0  0  0  0  0  0  0  0
    2.7457   -1.2522   -0.5456 C   0  0  0  0  0  0  0  0  0  0  0  0
    1.6267   -1.7513    0.3742 C   0  0  0  0  0  0  0  0  0  0  0  0
    0.6000   -0.6471    0.7749 C   0  0  1  0  0  0  0  0  0  0  0  0
    1.2150    0.7517    0.8403 C   0  0  0  0  0  0  0  0  0  0  0  0
    2.4914    1.0245    0.4926 C   0  0  0  0  0  0  0  0  0  0  0  0
    0.3293    1.8674    1.3304 C   0  0  0  0  0  0  0  0  0  0  0  0
   -0.9674    1.8982    0.5226 C   0  0  0  0  0  0  0  0  0  0  0  0
   -1.6756    0.5166    0.5565 C   0  0  2  0  0  0  0  0  0  0  0  0
   -0.7549   -0.6267   -0.0475 C   0  0  2  0  0  0  0  0  0  0  0  0
   -1.4963   -1.9886    0.1280 C   0  0  0  0  0  0  0  0  0  0  0  0
   -2.9200   -1.9799   -0.4333 C   0  0  0  0  0  0  0  0  0  0  0  0
   -3.7697   -0.8953    0.2274 C   0  0  0  0  0  0  0  0  0  0  0  0
   -3.1790    0.5331    0.0580 C   0  0  1  0  0  0  0  0  0  0  0  0
   -4.0373    1.4661    0.9511 C   0  0  0  0  0  0  0  0  0  0  0  0
   -3.3423    1.0279   -1.3746 C   0  0  0  0  0  0  0  0  0  0  0  0
   -2.8885    2.1515   -1.7175 O   0  0  0  0  0  0  0  0  0  0  0  0
   -4.0693    0.2958   -2.3078 O   0  0  0  0  0  0  0  0  0  0  0  0
   -0.4357   -0.4074   -1.5523 C   0  0  0  0  0  0  0  0  0  0  0  0
    4.3965    0.5614   -1.0257 C   0  0  0  0  0  0  0  0  0  0  0  0
    3.9318    1.1516   -2.1354 C   0  0  0  0  0  0  0  0  0  0  0  0
    3.7107   -0.7711    2.1046 H   0  0  0  0  0  0  0  0  0  0  0  0
    5.0399   -1.2551    0.9851 H   0  0  0  0  0  0  0  0  0  0  0  0
    4.9426    0.4307    1.6123 H   0  0  0  0  0  0  0  0  0  0  0  0
    2.3112   -1.0016   -1.5343 H   0  0  0  0  0  0  0  0  0  0  0  0
    3.4678   -2.0802   -0.7205 H   0  0  0  0  0  0  0  0  0  0  0  0
    1.1472   -2.6172   -0.1152 H   0  0  0  0  0  0  0  0  0  0  0  0
    2.0866   -2.1659    1.2966 H   0  0  0  0  0  0  0  0  0  0  0  0
    0.3198   -0.8860    1.8261 H   0  0  0  0  0  0  0  0  0  0  0  0
    2.8647    2.0401    0.6050 H   0  0  0  0  0  0  0  0  0  0  0  0
    0.8246    2.8599    1.2469 H   0  0  0  0  0  0  0  0  0  0  0  0
    0.0991    1.6990    2.4048 H   0  0  0  0  0  0  0  0  0  0  0  0
   -0.7343    2.2057   -0.5168 H   0  0  0  0  0  0  0  0  0  0  0  0
   -1.6066    2.6851    0.9680 H   0  0  0  0  0  0  0  0  0  0  0  0
   -1.7593    0.2715    1.6419 H   0  0  0  0  0  0  0  0  0  0  0  0
   -0.9623   -2.8118   -0.3868 H   0  0  0  0  0  0  0  0  0  0  0  0
   -1.5450   -2.2556    1.2072 H   0  0  0  0  0  0  0  0  0  0  0  0
   -2.9043   -1.8554   -1.5350 H   0  0  0  0  0  0  0  0  0  0  0  0
   -3.3877   -2.9678   -0.2300 H   0  0  0  0  0  0  0  0  0  0  0  0
   -4.8018   -0.9449   -0.1851 H   0  0  0  0  0  0  0  0  0  0  0  0
   -3.8529   -1.1407    1.3106 H   0  0  0  0  0  0  0  0  0  0  0  0
   -5.1181    1.3405    0.7209 H   0  0  0  0  0  0  0  0  0  0  0  0
   -3.8011    2.5372    0.7845 H   0  0  0  0  0  0  0  0  0  0  0  0
   -3.8888    1.2372    2.0284 H   0  0  0  0  0  0  0  0  0  0  0  0
   -1.3403   -0.2784   -2.1681 H   0  0  0  0  0  0  0  0  0  0  0  0
    0.2148    0.4769   -1.7096 H   0  0  0  0  0  0  0  0  0  0  0  0
    0.0854   -1.2924   -1.9709 H   0  0  0  0  0  0  0  0  0  0  0  0
    5.4746    0.5062   -0.8958 H   0  0  0  0  0  0  0  0  0  0  0  0
    2.8659    1.2433   -2.3198 H   0  0  0  0  0  0  0  0  0  0  0  0
    4.6251    1.5539   -2.8667 H   0  0  0  0  0  0  0  0  0  0  0  0
  2  1  1  1
  2  3  1  0
  3  4  1  0
  4  5  1  0
  5  6  1  0
  6  7  2  0
  6  8  1  0
  8  9  1  0
  9 10  1  0
 10 11  1  0
 11 12  1  0
 12 13  1  0
 13 14  1  0
 14 15  1  0
 15 16  1  1
 15 17  1  0
 17 18  2  0
 17 19  1  0
 11 20  1  6
  2 21  1  0
 21 22  2  0
  7  2  1  0
 11  5  1  0
 15 10  1  0
  1 23  1  0
  1 24  1  0
  1 25  1  0
  3 26  1  0
  3 27  1  0
  4 28  1  0
  4 29  1  0
  5 30  1  1
  7 31  1  0
  8 32  1  0
  8 33  1  0
  9 34  1  0
  9 35  1  0
 10 36  1  1
 12 37  1  0
 12 38  1  0
 13 39  1  0
 13 40  1  0
 14 41  1  0
 14 42  1  0
 16 43  1  0
 16 44  1  0
 16 45  1  0
 20 46  1  0
 20 47  1  0
 20 48  1  0
 21 49  1  0
 22 50  1  0
 22 51  1  0
M  CHG  1  19  -1
M  END
$$$$
