
     RDKit          3D

 51 53  0  0  0  0  0  0  0  0999 V2000
    4.1567   -1.6478    2.0518 C   0  0  0  0  0  0  0  0  0  0  0  0
    3.2270   -0.8194    1.1425 C   0  0  1  0  0  0  0  0  0  0  0  0
    2.8351   -1.6636   -0.0940 C   0  0  0  0  0  0  0  0  0  0  0  0
    1.7357   -0.9670   -0.8940 C   0  0  0  0  0  0  0  0  0  0  0  0
    0.4494   -0.8078   -0.0395 C   0  0  1  0  0  0  0  0  0  0  0  0
    0.7469   -0.3615    1.3906 C   0  0  0  0  0  0  0  0  0  0  0  0
    1.9826   -0.4572    1.9341 C   0  0  0  0  0  0  0  0  0  0  0  0
   -0.4276   -0.1253    2.3069 C   0  0  0  0  0  0  0  0  0  0  0  0
   -1.4905    0.7434    1.6388 C   0  0  0  0  0  0  0  0  0  0  0  0
   -1.8961    0.1981    0.2451 C   0  0  2  0  0  0  0  0  0  0  0  0
   -0.6548    0.0930   -0.7242 C   0  0  2  0  0  0  0  0  0  0  0  0
   -1.0890   -0.5900   -2.0760 C   0  0  0  0  0  0  0  0  0  0  0  0
   -2.5947   -0.5540   -2.3789 C   0  0  0  0  0  0  0  0  0  0  0  0
   -3.2201    0.7584   -1.9218 C   0  0  0  0  0  0  0  0  0  0  0  0
   -3.1807    0.9152   -0.3672 C   0  0  1  0  0  0  0  0  0  0  0  0
   -4.4519    0.2297    0.2047 C   0  0  0  0  0  0  0  0  0  0  0  0
   -3.2725    2.4005    0.0015 C   0  0  0  0  0  0  0  0  0  0  0  0
   -3.5930    2.7471    1.1706 O   0  0  0  0  0  0  0  0  0  0  0  0
   -3.0356    3.4003   -0.9364 O   0  0  0  0  0  0  0  0  0  0  0  0
   -0.0695    1.5089   -1.0119 C   0  0  0  0  0  0  0  0  0  0  0  0
    3.9244    0.4723    0.7329 C   0  0  0  0  0  0  0  0  0  0  0  0
    5.0770    0.4968    0.0516 C   0  0  0  0  0  0  0  0  0  0  0  0
    4.5054   -1.0397    2.9150 H   0  0  0  0  0  0  0  0  0  0  0  0
    3.6226   -2.5393    2.4469 H   0  0  0  0  0  0  0  0  0  0  0  0
    5.0480   -2.0041    1.4928 H   0  0  0  0  0  0  0  0  0  0  0  0
    3.7149   -1.8369   -0.7506 H   0  0  0  0  0  0  0  0  0  0  0  0
    2.4650   -2.6635    0.2266 H   0  0  0  0  0  0  0  0  0  0  0  0
    2.1263    0.0108   -1.2366 H   0  0  0  0  0  0  0  0  0  0  0  0
    1.5210   -1.5742   -1.7986 H   0  0  0  0  0  0  0  0  0  0  0  0
    0.0246   -1.8321    0.0671 H   0  0  0  0  0  0  0  0  0  0  0  0
    2.1162   -0.2019    2.9832 H   0  0  0  0  0  0  0  0  0  0  0  0
   -0.8696   -1.1085    2.5785 H   0  0  0  0  0  0  0  0  0  0  0  0
   -0.1115    0.3756    3.2487 H   0  0  0  0  0  0  0  0  0  0  0  0
   -2.3749    0.7590    2.3100 H   0  0  0  0  0  0  0  0  0  0  0  0
   -1.1104    1.7839    1.5608 H   0  0  0  0  0  0  0  0  0  0  0  0
   -2.1929   -0.8615    0.4282 H   0  0  0  0  0  0  0  0  0  0  0  0
   -0.8067   -1.6651   -2.0873 H   0  0  0  0  0  0  0  0  0  0  0  0
   -0.5464   -0.1373   -2.9345 H   0  0  0  0  0  0  0  0  0  0  0  0
   -2.7499   -0.6744   -3.4733 H   0  0  0  0  0  0  0  0  0  0  0  0
   -3.1003   -1.4096   -1.8818 H   0  0  0  0  0  0  0  0  0  0  0  0
   -4.2659    0.8128   -2.2976 H   0  0  0  0  0  0  0  0  0  0  0  0
   -2.6747    1.5718   -2.4432 H   0  0  0  0  0  0  0  0  0  0  0  0
   -4.4628    0.2636    1.3145 H   0  0  0  0  0  0  0  0  0  0  0  0
   -4.5081   -0.8370   -0.0983 H   0  0  0  0  0  0  0  0  0  0  0  0
   -5.3722    0.7361   -0.1604 H   0  0  0  0  0  0  0  0  0  0  0  0
    0.4828    1.9062   -0.1352 H   0  0  0  0  0  0  0  0  0  0  0  0
    0.6329    1.4995   -1.8699 H   0  0  0  0  0  0  0  0  0  0  0  0
   -0.8511    2.2391   -1.2725 H   0  0  0  0  0  0  0  0  0  0  0  0
    3.4715    1.4268    0.9913 H   0  0  0  0  0  0  0  0  0  0  0  0
    5.5255    1.4473   -0.2180 H   0  0  0  0  0  0  0  0  0  0  0  0
    5.5821   -0.4170   -0.2423 H   0  0  0  0  0  0  0  0  0  0  0  0
  2  1  1  1
  2  3  1  0
  3  4  1  0
  4  5  1  0
  5  6  1  0
  6  7  2  0
  6  8  1  0
  8  9  1  0
  9 10  1  0
 10 11  1  0
 11 12  1  0
 12 13  1  0
 13 14  1  0
 14 15  1  0
 15 16  1  1
 15 17  1  0
 17 18  2  0
 17 19  1  0
 11 20  1  6
  2 21  1  0
 21 22  2  0
  7  2  1  0
 11  5  1  0
 15 10  1  0
  1 23  1  0
  1 24  1  0
  1 25  1  0
  3 26  1  0
  3 27  1  0
  4 28  1  0
  4 29  1  0
  5 30  1  1
  7 31  1  0
  8 32  1  0
  8 33  1  0
  9 34  1  0
  9 35  1  0
 10 36  1  1
 12 37  1  0
 12 38  1  0
 13 39  1  0
 13 40  1  0
 14 41  1  0
 14 42  1  0
 16 43  1  0
 16 44  1  0
 16 45  1  0
 20 46  1  0
 20 47  1  0
 20 48  1  0
 21 49  1  0
 22 50  1  0
 22 51  1  0
M  CHG  1  19  -1
M  END
$$$$
