
     RDKit          3D

 51 53  0  0  0  0  0  0  0  0999 V2000
    4.2989    0.4632   -0.9860 C   0  0  0  0  0  0  0  0  0  0  0  0
    3.3987   -0.2716    0.0319 C   0  0  1  0  0  0  0  0  0  0  0  0
    2.7714    0.7327    1.0261 C   0  0  0  0  0  0  0  0  0  0  0  0
    1.7337    1.6455    0.3640 C   0  0  0  0  0  0  0  0  0  0  0  0
    0.6241    0.8723   -0.4100 C   0  0  1  0  0  0  0  0  0  0  0  0
    1.0724   -0.4894   -0.9320 C   0  0  0  0  0  0  0  0  0  0  0  0
    2.3009   -1.0064   -0.7113 C   0  0  0  0  0  0  0  0  0  0  0  0
    0.0825   -1.2522   -1.7729 C   0  0  0  0  0  0  0  0  0  0  0  0
   -1.2437   -1.3879   -1.0274 C   0  0  0  0  0  0  0  0  0  0  0  0
   -1.7866   -0.0083   -0.5659 C   0  0  2  0  0  0  0  0  0  0  0  0
   -0.7573    0.7657    0.3523 C   0  0  2  0  0  0  0  0  0  0  0  0
   -1.2965    2.2192    0.6392 C   0  0  0  0  0  0  0  0  0  0  0  0
   -2.8015    2.4207    0.4024 C   0  0  0  0  0  0  0  0  0  0  0  0
   -3.5967    1.1999    0.8538 C   0  0  0  0  0  0  0  0  0  0  0  0
   -3.2792   -0.0602   -0.0171 C   0  0  1  0  0  0  0  0  0  0  0  0
   -4.2564   -0.0460   -1.2248 C   0  0  0  0  0  0  0  0  0  0  0  0
   -3.5722   -1.3337    0.7824 C   0  0  0  0  0  0  0  0  0  0  0  0
   -3.7122   -2.4377    0.1895 O   0  0  0  0  0  0  0  0  0  0  0  0
   -3.7147   -1.3100    2.1658 O   0  0  0  0  0  0  0  0  0  0  0  0
   -0.5429    0.0169    1.6976 C   0  0  0  0  0  0  0  0  0  0  0  0
    4.2403   -1.2655    0.8271 C   0  0  0  0  0  0  0  0  0  0  0  0
    4.9072   -2.2833    0.2654 C   0  0  0  0  0  0  0  0  0  0  0  0
    4.7963   -0.2550   -1.6715 H   0  0  0  0  0  0  0  0  0  0  0  0
    3.7092    1.1555   -1.6219 H   0  0  0  0  0  0  0  0  0  0  0  0
    5.0866    1.0456   -0.4613 H   0  0  0  0  0  0  0  0  0  0  0  0
    3.5657    1.3627    1.4847 H   0  0  0  0  0  0  0  0  0  0  0  0
    2.2832    0.1783    1.8556 H   0  0  0  0  0  0  0  0  0  0  0  0
    1.3029    2.3032    1.1461 H   0  0  0  0  0  0  0  0  0  0  0  0
    2.2549    2.3333   -0.3353 H   0  0  0  0  0  0  0  0  0  0  0  0
    0.4296    1.4755   -1.3263 H   0  0  0  0  0  0  0  0  0  0  0  0
    2.5490   -1.9634   -1.1623 H   0  0  0  0  0  0  0  0  0  0  0  0
    0.4518   -2.2694   -2.0303 H   0  0  0  0  0  0  0  0  0  0  0  0
   -0.0785   -0.7033   -2.7259 H   0  0  0  0  0  0  0  0  0  0  0  0
   -1.9666   -1.8701   -1.7180 H   0  0  0  0  0  0  0  0  0  0  0  0
   -1.1038   -2.0686   -0.1614 H   0  0  0  0  0  0  0  0  0  0  0  0
   -1.8290    0.5997   -1.5002 H   0  0  0  0  0  0  0  0  0  0  0  0
   -0.7791    2.9683    0.0005 H   0  0  0  0  0  0  0  0  0  0  0  0
   -1.0704    2.5189    1.6864 H   0  0  0  0  0  0  0  0  0  0  0  0
   -3.1439    3.3138    0.9693 H   0  0  0  0  0  0  0  0  0  0  0  0
   -2.9921    2.6235   -0.6734 H   0  0  0  0  0  0  0  0  0  0  0  0
   -3.3654    1.0445    1.9274 H   0  0  0  0  0  0  0  0  0  0  0  0
   -4.6821    1.4422    0.8197 H   0  0  0  0  0  0  0  0  0  0  0  0
   -4.1632    0.8947   -1.8077 H   0  0  0  0  0  0  0  0  0  0  0  0
   -5.3104   -0.1300   -0.8802 H   0  0  0  0  0  0  0  0  0  0  0  0
   -4.0599   -0.8911   -1.9170 H   0  0  0  0  0  0  0  0  0  0  0  0
    0.0801    0.6158    2.3924 H   0  0  0  0  0  0  0  0  0  0  0  0
   -0.0357   -0.9580    1.5484 H   0  0  0  0  0  0  0  0  0  0  0  0
   -1.4915   -0.1704    2.2251 H   0  0  0  0  0  0  0  0  0  0  0  0
    4.3214   -1.1525    1.9056 H   0  0  0  0  0  0  0  0  0  0  0  0
    5.4926   -2.9540    0.8858 H   0  0  0  0  0  0  0  0  0  0  0  0
    4.8781   -2.4609   -0.8044 H   0  0  0  0  0  0  0  0  0  0  0  0
  2  1  1  6
  2  3  1  0
  3  4  1  0
  4  5  1  0
  5  6  1  0
  6  7  2  0
  6  8  1  0
  8  9  1  0
  9 10  1  0
 10 11  1  0
 11 12  1  0
 12 13  1  0
 13 14  1  0
 14 15  1  0
 15 16  1  6
 15 17  1  0
 17 18  2  0
 17 19  1  0
 11 20  1  1
  2 21  1  0
 21 22  2  0
  7  2  1  0
 11  5  1  0
 15 10  1  0
  1 23  1  0
  1 24  1  0
  1 25  1  0
  3 26  1  0
  3 27  1  0
  4 28  1  0
  4 29  1  0
  5 30  1  6
  7 31  1  0
  8 32  1  0
  8 33  1  0
  9 34  1  0
  9 35  1  0
 10 36  1  6
 12 37  1  0
 12 38  1  0
 13 39  1  0
 13 40  1  0
 14 41  1  0
 14 42  1  0
 16 43  1  0
 16 44  1  0
 16 45  1  0
 20 46  1  0
 20 47  1  0
 20 48  1  0
 21 49  1  0
 22 50  1  0
 22 51  1  0
M  CHG  1  19  -1
M  END
$$$$
