
     RDKit          3D

 51 53  0  0  0  0  0  0  0  0999 V2000
    4.7147   -1.0090   -0.8646 C   0  0  0  0  0  0  0  0  0  0  0  0
    3.4702   -0.3669   -0.2192 C   0  0  1  0  0  0  0  0  0  0  0  0
    2.9765    0.7991   -1.1078 C   0  0  0  0  0  0  0  0  0  0  0  0
    1.6285    1.3217   -0.6131 C   0  0  0  0  0  0  0  0  0  0  0  0
    0.5445    0.2127   -0.6730 C   0  0  1  0  0  0  0  0  0  0  0  0
    1.0650   -1.1559   -0.2310 C   0  0  0  0  0  0  0  0  0  0  0  0
    2.3859   -1.4236   -0.1147 C   0  0  0  0  0  0  0  0  0  0  0  0
    0.0882   -2.3091   -0.2151 C   0  0  0  0  0  0  0  0  0  0  0  0
   -1.2324   -1.9261    0.4568 C   0  0  0  0  0  0  0  0  0  0  0  0
   -1.8089   -0.6113   -0.1319 C   0  0  2  0  0  0  0  0  0  0  0  0
   -0.7940    0.5832    0.0782 C   0  0  2  0  0  0  0  0  0  0  0  0
   -1.3881    1.8705   -0.5607 C   0  0  0  0  0  0  0  0  0  0  0  0
   -2.7973    2.1849   -0.0612 C   0  0  0  0  0  0  0  0  0  0  0  0
   -3.7536    1.0332   -0.3735 C   0  0  0  0  0  0  0  0  0  0  0  0
   -3.3177   -0.3204    0.2592 C   0  0  1  0  0  0  0  0  0  0  0  0
   -4.2464   -1.4019   -0.3528 C   0  0  0  0  0  0  0  0  0  0  0  0
   -3.5711   -0.3267    1.7637 C   0  0  0  0  0  0  0  0  0  0  0  0
   -3.3337   -1.3587    2.4460 O   0  0  0  0  0  0  0  0  0  0  0  0
   -4.1386    0.7711    2.4024 O   0  0  0  0  0  0  0  0  0  0  0  0
   -0.4956    0.8469    1.5862 C   0  0  0  0  0  0  0  0  0  0  0  0
    3.8086    0.1118    1.1874 C   0  0  0  0  0  0  0  0  0  0  0  0
    4.7544    1.0253    1.4410 C   0  0  0  0  0  0  0  0  0  0  0  0
    5.5112   -0.2535   -1.0339 H   0  0  0  0  0  0  0  0  0  0  0  0
    5.1258   -1.8102   -0.2124 H   0  0  0  0  0  0  0  0  0  0  0  0
    4.4559   -1.4586   -1.8480 H   0  0  0  0  0  0  0  0  0  0  0  0
    2.8616    0.4548   -2.1604 H   0  0  0  0  0  0  0  0  0  0  0  0
    3.7133    1.6311   -1.1151 H   0  0  0  0  0  0  0  0  0  0  0  0
    1.7622    1.7140    0.4136 H   0  0  0  0  0  0  0  0  0  0  0  0
    1.3293    2.1730   -1.2611 H   0  0  0  0  0  0  0  0  0  0  0  0
    0.3020    0.0936   -1.7537 H   0  0  0  0  0  0  0  0  0  0  0  0
    2.6969   -2.4367    0.1317 H   0  0  0  0  0  0  0  0  0  0  0  0
   -0.1082   -2.6200   -1.2642 H   0  0  0  0  0  0  0  0  0  0  0  0
    0.5099   -3.1866    0.3232 H   0  0  0  0  0  0  0  0  0  0  0  0
   -1.9333   -2.7698    0.3027 H   0  0  0  0  0  0  0  0  0  0  0  0
   -1.0630   -1.8345    1.5488 H   0  0  0  0  0  0  0  0  0  0  0  0
   -1.8415   -0.7760   -1.2348 H   0  0  0  0  0  0  0  0  0  0  0  0
   -1.4232    1.7632   -1.6680 H   0  0  0  0  0  0  0  0  0  0  0  0
   -0.7452    2.7497   -0.3403 H   0  0  0  0  0  0  0  0  0  0  0  0
   -3.1621    3.0995   -0.5770 H   0  0  0  0  0  0  0  0  0  0  0  0
   -2.7835    2.4109    1.0243 H   0  0  0  0  0  0  0  0  0  0  0  0
   -3.8079    0.9293   -1.4811 H   0  0  0  0  0  0  0  0  0  0  0  0
   -4.7764    1.3116   -0.0353 H   0  0  0  0  0  0  0  0  0  0  0  0
   -4.1053   -2.3936    0.1231 H   0  0  0  0  0  0  0  0  0  0  0  0
   -4.0688   -1.5121   -1.4443 H   0  0  0  0  0  0  0  0  0  0  0  0
   -5.3139   -1.1257   -0.2074 H   0  0  0  0  0  0  0  0  0  0  0  0
   -1.4096    0.8832    2.1999 H   0  0  0  0  0  0  0  0  0  0  0  0
    0.1706    0.0706    2.0158 H   0  0  0  0  0  0  0  0  0  0  0  0
   -0.0015    1.8286    1.7350 H   0  0  0  0  0  0  0  0  0  0  0  0
    3.2578   -0.2918    2.0340 H   0  0  0  0  0  0  0  0  0  0  0  0
    4.9487    1.3328    2.4633 H   0  0  0  0  0  0  0  0  0  0  0  0
    5.3393    1.4726    0.6446 H   0  0  0  0  0  0  0  0  0  0  0  0
  2  1  1  6
  2  3  1  0
  3  4  1  0
  4  5  1  0
  5  6  1  0
  6  7  2  0
  6  8  1  0
  8  9  1  0
  9 10  1  0
 10 11  1  0
 11 12  1  0
 12 13  1  0
 13 14  1  0
 14 15  1  0
 15 16  1  6
 15 17  1  0
 17 18  2  0
 17 19  1  0
 11 20  1  1
  2 21  1  0
 21 22  2  0
  7  2  1  0
 11  5  1  0
 15 10  1  0
  1 23  1  0
  1 24  1  0
  1 25  1  0
  3 26  1  0
  3 27  1  0
  4 28  1  0
  4 29  1  0
  5 30  1  6
  7 31  1  0
  8 32  1  0
  8 33  1  0
  9 34  1  0
  9 35  1  0
 10 36  1  6
 12 37  1  0
 12 38  1  0
 13 39  1  0
 13 40  1  0
 14 41  1  0
 14 42  1  0
 16 43  1  0
 16 44  1  0
 16 45  1  0
 20 46  1  0
 20 47  1  0
 20 48  1  0
 21 49  1  0
 22 50  1  0
 22 51  1  0
M  CHG  1  19  -1
M  END
$$$$
