
     RDKit          3D

 51 53  0  0  0  0  0  0  0  0999 V2000
    4.2659   -2.0255    1.4032 C   0  0  0  0  0  0  0  0  0  0  0  0
    3.3843   -0.8479    0.9424 C   0  0  1  0  0  0  0  0  0  0  0  0
    3.1740   -0.9667   -0.5870 C   0  0  0  0  0  0  0  0  0  0  0  0
    2.0082   -0.1022   -1.0592 C   0  0  0  0  0  0  0  0  0  0  0  0
    0.6874   -0.5561   -0.3849 C   0  0  1  0  0  0  0  0  0  0  0  0
    0.8497   -0.7326    1.1232 C   0  0  0  0  0  0  0  0  0  0  0  0
    2.0618   -0.9348    1.6923 C   0  0  0  0  0  0  0  0  0  0  0  0
   -0.3784   -1.0583    1.9380 C   0  0  0  0  0  0  0  0  0  0  0  0
   -1.5677   -0.1803    1.5585 C   0  0  0  0  0  0  0  0  0  0  0  0
   -1.8165   -0.1674    0.0293 C   0  0  2  0  0  0  0  0  0  0  0  0
   -0.5531    0.3500   -0.7616 C   0  0  2  0  0  0  0  0  0  0  0  0
   -0.8062    0.2314   -2.3126 C   0  0  0  0  0  0  0  0  0  0  0  0
   -2.2795    0.1237   -2.7346 C   0  0  0  0  0  0  0  0  0  0  0  0
   -3.1718    0.9980   -1.8613 C   0  0  0  0  0  0  0  0  0  0  0  0
   -3.2020    0.5035   -0.3781 C   0  0  1  0  0  0  0  0  0  0  0  0
   -4.3222   -0.5660   -0.2658 C   0  0  0  0  0  0  0  0  0  0  0  0
   -3.6002    1.6562    0.5500 C   0  0  0  0  0  0  0  0  0  0  0  0
   -3.4750    2.8600    0.1992 O   0  0  0  0  0  0  0  0  0  0  0  0
   -4.1223    1.3902    1.8121 O   0  0  0  0  0  0  0  0  0  0  0  0
   -0.2496    1.8335   -0.3959 C   0  0  0  0  0  0  0  0  0  0  0  0
    4.1198    0.4474    1.2737 C   0  0  0  0  0  0  0  0  0  0  0  0
    3.5125    1.6164    1.5197 C   0  0  0  0  0  0  0  0  0  0  0  0
    4.4943   -1.9450    2.4886 H   0  0  0  0  0  0  0  0  0  0  0  0
    3.7499   -2.9952    1.2294 H   0  0  0  0  0  0  0  0  0  0  0  0
    5.2279   -2.0394    0.8457 H   0  0  0  0  0  0  0  0  0  0  0  0
    4.0991   -0.6671   -1.1283 H   0  0  0  0  0  0  0  0  0  0  0  0
    2.9589   -2.0225   -0.8678 H   0  0  0  0  0  0  0  0  0  0  0  0
    2.2451    0.9543   -0.8324 H   0  0  0  0  0  0  0  0  0  0  0  0
    1.9282   -0.1954   -2.1627 H   0  0  0  0  0  0  0  0  0  0  0  0
    0.4771   -1.5807   -0.7685 H   0  0  0  0  0  0  0  0  0  0  0  0
    2.1135   -1.1373    2.7599 H   0  0  0  0  0  0  0  0  0  0  0  0
   -0.6403   -2.1255    1.7693 H   0  0  0  0  0  0  0  0  0  0  0  0
   -0.1845   -0.9256    3.0255 H   0  0  0  0  0  0  0  0  0  0  0  0
   -2.4579   -0.5884    2.0816 H   0  0  0  0  0  0  0  0  0  0  0  0
   -1.4004    0.8476    1.9432 H   0  0  0  0  0  0  0  0  0  0  0  0
   -1.8988   -1.2425   -0.2572 H   0  0  0  0  0  0  0  0  0  0  0  0
   -0.3070   -0.6695   -2.7309 H   0  0  0  0  0  0  0  0  0  0  0  0
   -0.3500    1.0918   -2.8496 H   0  0  0  0  0  0  0  0  0  0  0  0
   -2.6115   -0.9351   -2.6776 H   0  0  0  0  0  0  0  0  0  0  0  0
   -2.3792    0.4403   -3.7958 H   0  0  0  0  0  0  0  0  0  0  0  0
   -4.1974    1.0141   -2.2926 H   0  0  0  0  0  0  0  0  0  0  0  0
   -2.7966    2.0383   -1.9538 H   0  0  0  0  0  0  0  0  0  0  0  0
   -4.3639   -1.0016    0.7547 H   0  0  0  0  0  0  0  0  0  0  0  0
   -5.3172   -0.1213   -0.4872 H   0  0  0  0  0  0  0  0  0  0  0  0
   -4.1575   -1.4012   -0.9786 H   0  0  0  0  0  0  0  0  0  0  0  0
   -1.1414    2.4733   -0.4761 H   0  0  0  0  0  0  0  0  0  0  0  0
    0.5003    2.2804   -1.0797 H   0  0  0  0  0  0  0  0  0  0  0  0
    0.1434    1.9262    0.6365 H   0  0  0  0  0  0  0  0  0  0  0  0
    5.2069    0.4438    1.2570 H   0  0  0  0  0  0  0  0  0  0  0  0
    4.1070    2.5019    1.7192 H   0  0  0  0  0  0  0  0  0  0  0  0
    2.4328    1.7091    1.5277 H   0  0  0  0  0  0  0  0  0  0  0  0
  2  1  1  1
  2  3  1  0
  3  4  1  0
  4  5  1  0
  5  6  1  0
  6  7  2  0
  6  8  1  0
  8  9  1  0
  9 10  1  0
 10 11  1  0
 11 12  1  0
 12 13  1  0
 13 14  1  0
 14 15  1  0
 15 16  1  6
 15 17  1  0
 17 18  2  0
 17 19  1  0
 11 20  1  6
  2 21  1  0
 21 22  2  0
  7  2  1  0
 11  5  1  0
 15 10  1  0
  1 23  1  0
  1 24  1  0
  1 25  1  0
  3 26  1  0
  3 27  1  0
  4 28  1  0
  4 29  1  0
  5 30  1  6
  7 31  1  0
  8 32  1  0
  8 33  1  0
  9 34  1  0
  9 35  1  0
 10 36  1  6
 12 37  1  0
 12 38  1  0
 13 39  1  0
 13 40  1  0
 14 41  1  0
 14 42  1  0
 16 43  1  0
 16 44  1  0
 16 45  1  0
 20 46  1  0
 20 47  1  0
 20 48  1  0
 21 49  1  0
 22 50  1  0
 22 51  1  0
M  CHG  1  19  -1
M  END
$$$$
