
     RDKit          3D

 65 70  0  0  0  0  0  0  0  0999 V2000
   -6.2958    3.5230    2.3362 C   0  0  0  0  0  0  0  0  0  0  0  0
   -5.8427    2.4513    1.3892 C   0  0  0  0  0  0  0  0  0  0  0  0
   -6.7554    1.8607    0.5026 C   0  0  0  0  0  0  0  0  0  0  0  0
   -6.3489    0.8217   -0.3478 C   0  0  0  0  0  0  0  0  0  0  0  0
   -5.0148    0.3899   -0.3230 C   0  0  0  0  0  0  0  0  0  0  0  0
   -4.0958    0.9668    0.5664 C   0  0  0  0  0  0  0  0  0  0  0  0
   -4.5207    1.9853    1.4327 C   0  0  0  0  0  0  0  0  0  0  0  0
   -2.7393    0.4932    0.6123 N   0  0  0  0  0  0  0  0  0  0  0  0
   -1.5901    1.2249    0.5786 C   0  0  0  0  0  0  0  0  0  0  0  0
   -0.4602    0.3959    0.6823 C   0  0  0  0  0  0  0  0  0  0  0  0
   -0.9814   -0.8791    0.7766 C   0  0  0  0  0  0  0  0  0  0  0  0
   -2.3404   -0.7868    0.7279 C   0  0  0  0  0  0  0  0  0  0  0  0
   -3.1324   -1.8860    0.7963 N   0  0  0  0  0  0  0  0  0  0  0  0
   -2.5356   -3.1112    0.8986 C   0  0  0  0  0  0  0  0  0  0  0  0
   -3.3108   -4.2729    0.9683 C   0  0  0  0  0  0  0  0  0  0  0  0
   -2.6889   -5.5223    1.0669 C   0  0  0  0  0  0  0  0  0  0  0  0
   -1.2924   -5.6174    1.0959 C   0  0  0  0  0  0  0  0  0  0  0  0
   -0.5033   -4.4642    1.0271 C   0  0  0  0  0  0  0  0  0  0  0  0
   -1.1104   -3.2084    0.9292 C   0  0  0  0  0  0  0  0  0  0  0  0
   -0.3493   -2.0751    0.8637 N   0  0  0  0  0  0  0  0  0  0  0  0
    0.9686    0.7639    0.6199 C   0  0  0  0  0  0  0  0  0  0  0  0
    1.3133    1.8565    0.0948 O   0  0  0  0  0  0  0  0  0  0  0  0
    1.9668   -0.1176    1.1546 N   0  0  0  0  0  0  0  0  0  0  0  0
    3.3650    0.0467    0.8894 C   0  0  0  0  0  0  0  0  0  0  0  0
    3.9655    0.2338   -0.3638 C   0  0  0  0  0  0  0  0  0  0  0  0
    5.3663    0.3885   -0.2594 C   0  0  0  0  0  0  0  0  0  0  0  0
    5.8255    0.3490    1.0561 C   0  0  0  0  0  0  0  0  0  0  0  0
    4.5384    0.0572    2.0933 S   0  0  0  0  0  0  0  0  0  0  0  0
    7.2689    0.4003    1.4544 C   0  0  0  0  0  0  0  0  0  0  0  0
    8.1248    0.9897    0.3240 C   0  0  0  0  0  0  0  0  0  0  0  0
    7.7748    0.3427   -1.0251 C   0  0  0  0  0  0  0  0  0  0  0  0
    6.3106    0.6128   -1.4160 C   0  0  0  0  0  0  0  0  0  0  0  0
    3.2335    0.1914   -1.6473 C   0  0  0  0  0  0  0  0  0  0  0  0
    2.1951   -0.5169   -1.7562 O   0  0  0  0  0  0  0  0  0  0  0  0
    3.6944    0.9332   -2.7389 O   0  0  0  0  0  0  0  0  0  0  0  0
    3.0354    0.9338   -3.9992 C   0  0  0  0  0  0  0  0  0  0  0  0
   -1.5605    2.6479    0.4196 N   0  0  0  0  0  0  0  0  0  0  0  0
   -7.3167    0.2237   -1.3255 C   0  0  0  0  0  0  0  0  0  0  0  0
   -5.4596    4.2146    2.5741 H   0  0  0  0  0  0  0  0  0  0  0  0
   -6.6582    3.0560    3.2757 H   0  0  0  0  0  0  0  0  0  0  0  0
   -7.1177    4.1208    1.8878 H   0  0  0  0  0  0  0  0  0  0  0  0
   -7.7819    2.2074    0.4764 H   0  0  0  0  0  0  0  0  0  0  0  0
   -4.6880   -0.3910   -0.9990 H   0  0  0  0  0  0  0  0  0  0  0  0
   -3.8225    2.4090    2.1445 H   0  0  0  0  0  0  0  0  0  0  0  0
   -4.3918   -4.2109    0.9450 H   0  0  0  0  0  0  0  0  0  0  0  0
   -3.2907   -6.4203    1.1205 H   0  0  0  0  0  0  0  0  0  0  0  0
   -0.8207   -6.5886    1.1720 H   0  0  0  0  0  0  0  0  0  0  0  0
    0.5761   -4.5493    1.0508 H   0  0  0  0  0  0  0  0  0  0  0  0
    1.6950   -0.7623    1.9298 H   0  0  0  0  0  0  0  0  0  0  0  0
    7.6128   -0.6317    1.6807 H   0  0  0  0  0  0  0  0  0  0  0  0
    7.3830    1.0194    2.3696 H   0  0  0  0  0  0  0  0  0  0  0  0
    7.9584    2.0879    0.2628 H   0  0  0  0  0  0  0  0  0  0  0  0
    9.1991    0.8176    0.5499 H   0  0  0  0  0  0  0  0  0  0  0  0
    7.9461   -0.7547   -0.9630 H   0  0  0  0  0  0  0  0  0  0  0  0
    8.4446    0.7477   -1.8139 H   0  0  0  0  0  0  0  0  0  0  0  0
    6.2109    1.6660   -1.7561 H   0  0  0  0  0  0  0  0  0  0  0  0
    6.0439   -0.0591   -2.2594 H   0  0  0  0  0  0  0  0  0  0  0  0
    3.0141   -0.0949   -4.4173 H   0  0  0  0  0  0  0  0  0  0  0  0
    3.5873    1.5948   -4.6984 H   0  0  0  0  0  0  0  0  0  0  0  0
    1.9984    1.3149   -3.8855 H   0  0  0  0  0  0  0  0  0  0  0  0
   -0.6837    3.1932    0.5606 H   0  0  0  0  0  0  0  0  0  0  0  0
   -2.4228    3.1755    0.1625 H   0  0  0  0  0  0  0  0  0  0  0  0
   -8.3515    0.2552   -0.9226 H   0  0  0  0  0  0  0  0  0  0  0  0
   -7.0612   -0.8379   -1.5304 H   0  0  0  0  0  0  0  0  0  0  0  0
   -7.2808    0.7949   -2.2765 H   0  0  0  0  0  0  0  0  0  0  0  0
  1  2  1  0
  2  3  2  0
  3  4  1  0
  4  5  2  0
  5  6  1  0
  6  7  2  0
  6  8  1  0
  8  9  1  0
  9 10  2  0
 10 11  1  0
 11 12  2  0
 12 13  1  0
 13 14  2  0
 14 15  1  0
 15 16  2  0
 16 17  1  0
 17 18  2  0
 18 19  1  0
 19 20  2  0
 10 21  1  0
 21 22  2  0
 21 23  1  0
 23 24  1  0
 24 25  2  0
 25 26  1  0
 26 27  2  0
 27 28  1  0
 27 29  1  0
 29 30  1  0
 30 31  1  0
 31 32  1  0
 25 33  1  0
 33 34  2  0
 33 35  1  0
 35 36  1  0
  9 37  1  0
  4 38  1  0
  7  2  1  0
 12  8  1  0
 20 11  1  0
 19 14  1  0
 28 24  1  0
 32 26  1  0
  1 39  1  0
  1 40  1  0
  1 41  1  0
  3 42  1  0
  5 43  1  0
  7 44  1  0
 15 45  1  0
 16 46  1  0
 17 47  1  0
 18 48  1  0
 23 49  1  0
 29 50  1  0
 29 51  1  0
 30 52  1  0
 30 53  1  0
 31 54  1  0
 31 55  1  0
 32 56  1  0
 32 57  1  0
 36 58  1  0
 36 59  1  0
 36 60  1  0
 37 61  1  0
 37 62  1  0
 38 63  1  0
 38 64  1  0
 38 65  1  0
M  END
$$$$
