
     RDKit          3D

 65 70  0  0  0  0  0  0  0  0999 V2000
    7.2582   -2.7586    0.6397 C   0  0  0  0  0  0  0  0  0  0  0  0
    6.4121   -1.6878    1.2625 C   0  0  0  0  0  0  0  0  0  0  0  0
    6.9207   -0.9060    2.3103 C   0  0  0  0  0  0  0  0  0  0  0  0
    6.1194    0.0686    2.9233 C   0  0  0  0  0  0  0  0  0  0  0  0
    4.8070    0.2690    2.4712 C   0  0  0  0  0  0  0  0  0  0  0  0
    4.2781   -0.5275    1.4444 C   0  0  0  0  0  0  0  0  0  0  0  0
    5.0859   -1.5052    0.8444 C   0  0  0  0  0  0  0  0  0  0  0  0
    2.9322   -0.3198    0.9839 N   0  0  0  0  0  0  0  0  0  0  0  0
    1.7935   -0.2190    1.7261 C   0  0  0  0  0  0  0  0  0  0  0  0
    0.6776    0.0210    0.9082 C   0  0  0  0  0  0  0  0  0  0  0  0
    1.1950    0.0620   -0.3717 C   0  0  0  0  0  0  0  0  0  0  0  0
    2.5396   -0.1477   -0.2919 C   0  0  0  0  0  0  0  0  0  0  0  0
    3.3333   -0.1089   -1.3915 N   0  0  0  0  0  0  0  0  0  0  0  0
    2.7519    0.1329   -2.6046 C   0  0  0  0  0  0  0  0  0  0  0  0
    3.5280    0.1709   -3.7672 C   0  0  0  0  0  0  0  0  0  0  0  0
    2.9224    0.4247   -5.0027 C   0  0  0  0  0  0  0  0  0  0  0  0
    1.5419    0.6430   -5.0828 C   0  0  0  0  0  0  0  0  0  0  0  0
    0.7525    0.6101   -3.9283 C   0  0  0  0  0  0  0  0  0  0  0  0
    1.3433    0.3561   -2.6866 C   0  0  0  0  0  0  0  0  0  0  0  0
    0.5826    0.3256   -1.5520 N   0  0  0  0  0  0  0  0  0  0  0  0
   -0.7282    0.2322    1.3108 C   0  0  0  0  0  0  0  0  0  0  0  0
   -0.9780    0.7198    2.4451 O   0  0  0  0  0  0  0  0  0  0  0  0
   -1.7984   -0.0834    0.4046 N   0  0  0  0  0  0  0  0  0  0  0  0
   -3.1834    0.1928    0.6693 C   0  0  0  0  0  0  0  0  0  0  0  0
   -4.1807    0.3363   -0.3059 C   0  0  0  0  0  0  0  0  0  0  0  0
   -5.4676    0.4791    0.2619 C   0  0  0  0  0  0  0  0  0  0  0  0
   -5.4666    0.3903    1.6520 C   0  0  0  0  0  0  0  0  0  0  0  0
   -3.8930    0.2005    2.1997 S   0  0  0  0  0  0  0  0  0  0  0  0
   -6.6746    0.5774    2.5185 C   0  0  0  0  0  0  0  0  0  0  0  0
   -7.9634    0.3888    1.7050 C   0  0  0  0  0  0  0  0  0  0  0  0
   -7.8967    1.1644    0.3800 C   0  0  0  0  0  0  0  0  0  0  0  0
   -6.7518    0.6533   -0.5127 C   0  0  0  0  0  0  0  0  0  0  0  0
   -3.9100    0.3688   -1.7601 C   0  0  0  0  0  0  0  0  0  0  0  0
   -2.8000    0.7913   -2.1855 O   0  0  0  0  0  0  0  0  0  0  0  0
   -4.8862   -0.0634   -2.6627 O   0  0  0  0  0  0  0  0  0  0  0  0
   -4.6896   -0.0479   -4.0713 C   0  0  0  0  0  0  0  0  0  0  0  0
    1.7425   -0.4564    3.1379 N   0  0  0  0  0  0  0  0  0  0  0  0
    6.6858    0.9409    4.0044 C   0  0  0  0  0  0  0  0  0  0  0  0
    6.9719   -2.9164   -0.4221 H   0  0  0  0  0  0  0  0  0  0  0  0
    8.3320   -2.4753    0.6663 H   0  0  0  0  0  0  0  0  0  0  0  0
    7.1203   -3.7086    1.1970 H   0  0  0  0  0  0  0  0  0  0  0  0
    7.9405   -1.0537    2.6462 H   0  0  0  0  0  0  0  0  0  0  0  0
    4.1975    1.0485    2.9123 H   0  0  0  0  0  0  0  0  0  0  0  0
    4.6784   -2.1264    0.0559 H   0  0  0  0  0  0  0  0  0  0  0  0
    4.5970    0.0047   -3.7165 H   0  0  0  0  0  0  0  0  0  0  0  0
    3.5248    0.4530   -5.9015 H   0  0  0  0  0  0  0  0  0  0  0  0
    1.0828    0.8391   -6.0431 H   0  0  0  0  0  0  0  0  0  0  0  0
   -0.3145    0.7812   -4.0014 H   0  0  0  0  0  0  0  0  0  0  0  0
   -1.5630   -0.5614   -0.4918 H   0  0  0  0  0  0  0  0  0  0  0  0
   -6.6515    1.6034    2.9442 H   0  0  0  0  0  0  0  0  0  0  0  0
   -6.6522   -0.1528    3.3552 H   0  0  0  0  0  0  0  0  0  0  0  0
   -8.1172   -0.6925    1.4941 H   0  0  0  0  0  0  0  0  0  0  0  0
   -8.8293    0.7482    2.3016 H   0  0  0  0  0  0  0  0  0  0  0  0
   -7.7475    2.2461    0.5928 H   0  0  0  0  0  0  0  0  0  0  0  0
   -8.8605    1.0536   -0.1618 H   0  0  0  0  0  0  0  0  0  0  0  0
   -6.6001    1.3795   -1.3395 H   0  0  0  0  0  0  0  0  0  0  0  0
   -7.0392   -0.3274   -0.9493 H   0  0  0  0  0  0  0  0  0  0  0  0
   -3.8269   -0.6930   -4.3418 H   0  0  0  0  0  0  0  0  0  0  0  0
   -5.6006   -0.4368   -4.5704 H   0  0  0  0  0  0  0  0  0  0  0  0
   -4.5049    0.9910   -4.4177 H   0  0  0  0  0  0  0  0  0  0  0  0
    0.8395   -0.4392    3.6582 H   0  0  0  0  0  0  0  0  0  0  0  0
    2.5945   -0.7469    3.6645 H   0  0  0  0  0  0  0  0  0  0  0  0
    7.1504    1.8396    3.5478 H   0  0  0  0  0  0  0  0  0  0  0  0
    7.4550    0.3920    4.5884 H   0  0  0  0  0  0  0  0  0  0  0  0
    5.8874    1.2626    4.7067 H   0  0  0  0  0  0  0  0  0  0  0  0
  1  2  1  0
  2  3  2  0
  3  4  1  0
  4  5  2  0
  5  6  1  0
  6  7  2  0
  6  8  1  0
  8  9  1  0
  9 10  2  0
 10 11  1  0
 11 12  2  0
 12 13  1  0
 13 14  2  0
 14 15  1  0
 15 16  2  0
 16 17  1  0
 17 18  2  0
 18 19  1  0
 19 20  2  0
 10 21  1  0
 21 22  2  0
 21 23  1  0
 23 24  1  0
 24 25  2  0
 25 26  1  0
 26 27  2  0
 27 28  1  0
 27 29  1  0
 29 30  1  0
 30 31  1  0
 31 32  1  0
 25 33  1  0
 33 34  2  0
 33 35  1  0
 35 36  1  0
  9 37  1  0
  4 38  1  0
  7  2  1  0
 12  8  1  0
 20 11  1  0
 19 14  1  0
 28 24  1  0
 32 26  1  0
  1 39  1  0
  1 40  1  0
  1 41  1  0
  3 42  1  0
  5 43  1  0
  7 44  1  0
 15 45  1  0
 16 46  1  0
 17 47  1  0
 18 48  1  0
 23 49  1  0
 29 50  1  0
 29 51  1  0
 30 52  1  0
 30 53  1  0
 31 54  1  0
 31 55  1  0
 32 56  1  0
 32 57  1  0
 36 58  1  0
 36 59  1  0
 36 60  1  0
 37 61  1  0
 37 62  1  0
 38 63  1  0
 38 64  1  0
 38 65  1  0
M  END
$$$$
