
     RDKit          3D

 65 70  0  0  0  0  0  0  0  0999 V2000
   -6.4489   -4.1775   -0.9573 C   0  0  0  0  0  0  0  0  0  0  0  0
   -6.0798   -2.7240   -0.9209 C   0  0  0  0  0  0  0  0  0  0  0  0
   -7.0801   -1.7409   -0.9485 C   0  0  0  0  0  0  0  0  0  0  0  0
   -6.7421   -0.3812   -0.8794 C   0  0  0  0  0  0  0  0  0  0  0  0
   -5.3969   -0.0095   -0.7406 C   0  0  0  0  0  0  0  0  0  0  0  0
   -4.3889   -0.9845   -0.7019 C   0  0  0  0  0  0  0  0  0  0  0  0
   -4.7380   -2.3411   -0.7806 C   0  0  0  0  0  0  0  0  0  0  0  0
   -3.0141   -0.5971   -0.5399 N   0  0  0  0  0  0  0  0  0  0  0  0
   -1.9352   -0.9961   -1.2706 C   0  0  0  0  0  0  0  0  0  0  0  0
   -0.7509   -0.4243   -0.7783 C   0  0  0  0  0  0  0  0  0  0  0  0
   -1.1649    0.3502    0.2881 C   0  0  0  0  0  0  0  0  0  0  0  0
   -2.5180    0.2276    0.4008 C   0  0  0  0  0  0  0  0  0  0  0  0
   -3.2151    0.8814    1.3637 N   0  0  0  0  0  0  0  0  0  0  0  0
   -2.5304    1.6939    2.2234 C   0  0  0  0  0  0  0  0  0  0  0  0
   -3.2063    2.3899    3.2304 C   0  0  0  0  0  0  0  0  0  0  0  0
   -2.4954    3.2231    4.1009 C   0  0  0  0  0  0  0  0  0  0  0  0
   -1.1088    3.3656    3.9700 C   0  0  0  0  0  0  0  0  0  0  0  0
   -0.4186    2.6761    2.9674 C   0  0  0  0  0  0  0  0  0  0  0  0
   -1.1154    1.8391    2.0903 C   0  0  0  0  0  0  0  0  0  0  0  0
   -0.4511    1.1587    1.1091 N   0  0  0  0  0  0  0  0  0  0  0  0
    0.6203   -0.5431   -1.3160 C   0  0  0  0  0  0  0  0  0  0  0  0
    0.7839   -0.7702   -2.5442 O   0  0  0  0  0  0  0  0  0  0  0  0
    1.7562   -0.3698   -0.4525 N   0  0  0  0  0  0  0  0  0  0  0  0
    3.1185   -0.3542   -0.9094 C   0  0  0  0  0  0  0  0  0  0  0  0
    4.1917    0.2440   -0.2338 C   0  0  0  0  0  0  0  0  0  0  0  0
    5.4308   -0.0117   -0.8649 C   0  0  0  0  0  0  0  0  0  0  0  0
    5.3182   -0.8414   -1.9781 C   0  0  0  0  0  0  0  0  0  0  0  0
    3.7041   -1.2161   -2.2361 S   0  0  0  0  0  0  0  0  0  0  0  0
    6.4552   -1.2182   -2.8783 C   0  0  0  0  0  0  0  0  0  0  0  0
    7.8027   -1.0011   -2.1744 C   0  0  0  0  0  0  0  0  0  0  0  0
    7.8496    0.3721   -1.4862 C   0  0  0  0  0  0  0  0  0  0  0  0
    6.7743    0.4882   -0.3911 C   0  0  0  0  0  0  0  0  0  0  0  0
    4.0381    1.0755    0.9804 C   0  0  0  0  0  0  0  0  0  0  0  0
    2.9702    1.7191    1.1728 O   0  0  0  0  0  0  0  0  0  0  0  0
    5.0783    1.1523    1.9113 O   0  0  0  0  0  0  0  0  0  0  0  0
    4.9945    1.9406    3.0921 C   0  0  0  0  0  0  0  0  0  0  0  0
   -2.0223   -1.8611   -2.4086 N   0  0  0  0  0  0  0  0  0  0  0  0
   -7.8173    0.6648   -0.8756 C   0  0  0  0  0  0  0  0  0  0  0  0
   -5.6396   -4.7754   -1.4282 H   0  0  0  0  0  0  0  0  0  0  0  0
   -6.6135   -4.5425    0.0779 H   0  0  0  0  0  0  0  0  0  0  0  0
   -7.3768   -4.3318   -1.5482 H   0  0  0  0  0  0  0  0  0  0  0  0
   -8.1210   -2.0339   -1.0225 H   0  0  0  0  0  0  0  0  0  0  0  0
   -5.1317    1.0385   -0.6700 H   0  0  0  0  0  0  0  0  0  0  0  0
   -3.9653   -3.0976   -0.7153 H   0  0  0  0  0  0  0  0  0  0  0  0
   -4.2790    2.2881    3.3397 H   0  0  0  0  0  0  0  0  0  0  0  0
   -3.0205    3.7610    4.8797 H   0  0  0  0  0  0  0  0  0  0  0  0
   -0.5678    4.0126    4.6483 H   0  0  0  0  0  0  0  0  0  0  0  0
    0.6543    2.7927    2.8756 H   0  0  0  0  0  0  0  0  0  0  0  0
    1.5884   -0.2707    0.5719 H   0  0  0  0  0  0  0  0  0  0  0  0
    6.4087   -0.5886   -3.7926 H   0  0  0  0  0  0  0  0  0  0  0  0
    6.3588   -2.2835   -3.1777 H   0  0  0  0  0  0  0  0  0  0  0  0
    7.9618   -1.8006   -1.4175 H   0  0  0  0  0  0  0  0  0  0  0  0
    8.6219   -1.0691   -2.9221 H   0  0  0  0  0  0  0  0  0  0  0  0
    7.6949    1.1706   -2.2451 H   0  0  0  0  0  0  0  0  0  0  0  0
    8.8523    0.5235   -1.0318 H   0  0  0  0  0  0  0  0  0  0  0  0
    7.0855   -0.1114    0.4913 H   0  0  0  0  0  0  0  0  0  0  0  0
    6.6963    1.5538   -0.0870 H   0  0  0  0  0  0  0  0  0  0  0  0
    4.8496    3.0091    2.8261 H   0  0  0  0  0  0  0  0  0  0  0  0
    5.9380    1.8377    3.6664 H   0  0  0  0  0  0  0  0  0  0  0  0
    4.1490    1.5925    3.7225 H   0  0  0  0  0  0  0  0  0  0  0  0
   -2.9463   -2.1075   -2.8250 H   0  0  0  0  0  0  0  0  0  0  0  0
   -1.1678   -2.2651   -2.8485 H   0  0  0  0  0  0  0  0  0  0  0  0
   -8.1381    0.8604    0.1688 H   0  0  0  0  0  0  0  0  0  0  0  0
   -7.4452    1.6108   -1.3236 H   0  0  0  0  0  0  0  0  0  0  0  0
   -8.6949    0.3276   -1.4674 H   0  0  0  0  0  0  0  0  0  0  0  0
  1  2  1  0
  2  3  2  0
  3  4  1  0
  4  5  2  0
  5  6  1  0
  6  7  2  0
  6  8  1  0
  8  9  1  0
  9 10  2  0
 10 11  1  0
 11 12  2  0
 12 13  1  0
 13 14  2  0
 14 15  1  0
 15 16  2  0
 16 17  1  0
 17 18  2  0
 18 19  1  0
 19 20  2  0
 10 21  1  0
 21 22  2  0
 21 23  1  0
 23 24  1  0
 24 25  2  0
 25 26  1  0
 26 27  2  0
 27 28  1  0
 27 29  1  0
 29 30  1  0
 30 31  1  0
 31 32  1  0
 25 33  1  0
 33 34  2  0
 33 35  1  0
 35 36  1  0
  9 37  1  0
  4 38  1  0
  7  2  1  0
 12  8  1  0
 20 11  1  0
 19 14  1  0
 28 24  1  0
 32 26  1  0
  1 39  1  0
  1 40  1  0
  1 41  1  0
  3 42  1  0
  5 43  1  0
  7 44  1  0
 15 45  1  0
 16 46  1  0
 17 47  1  0
 18 48  1  0
 23 49  1  0
 29 50  1  0
 29 51  1  0
 30 52  1  0
 30 53  1  0
 31 54  1  0
 31 55  1  0
 32 56  1  0
 32 57  1  0
 36 58  1  0
 36 59  1  0
 36 60  1  0
 37 61  1  0
 37 62  1  0
 38 63  1  0
 38 64  1  0
 38 65  1  0
M  END
$$$$
