
     RDKit          3D

 65 70  0  0  0  0  0  0  0  0999 V2000
   -7.0637   -2.4985   -1.4887 C   0  0  0  0  0  0  0  0  0  0  0  0
   -5.8553   -2.6628   -0.6152 C   0  0  0  0  0  0  0  0  0  0  0  0
   -5.8556   -3.6099    0.4197 C   0  0  0  0  0  0  0  0  0  0  0  0
   -4.7198   -3.7830    1.2245 C   0  0  0  0  0  0  0  0  0  0  0  0
   -3.5632   -3.0359    0.9579 C   0  0  0  0  0  0  0  0  0  0  0  0
   -3.5415   -2.1081   -0.0943 C   0  0  0  0  0  0  0  0  0  0  0  0
   -4.6929   -1.9220   -0.8738 C   0  0  0  0  0  0  0  0  0  0  0  0
   -2.3607   -1.3307   -0.3538 N   0  0  0  0  0  0  0  0  0  0  0  0
   -1.0753   -1.7660   -0.4814 C   0  0  0  0  0  0  0  0  0  0  0  0
   -0.1971   -0.6889   -0.6811 C   0  0  0  0  0  0  0  0  0  0  0  0
   -1.0117    0.4242   -0.6689 C   0  0  0  0  0  0  0  0  0  0  0  0
   -2.2947    0.0082   -0.4738 C   0  0  0  0  0  0  0  0  0  0  0  0
   -3.3174    0.8901   -0.3451 N   0  0  0  0  0  0  0  0  0  0  0  0
   -3.0386    2.2254   -0.4325 C   0  0  0  0  0  0  0  0  0  0  0  0
   -4.0616    3.1715   -0.3157 C   0  0  0  0  0  0  0  0  0  0  0  0
   -3.7632    4.5359   -0.3980 C   0  0  0  0  0  0  0  0  0  0  0  0
   -2.4440    4.9613   -0.5946 C   0  0  0  0  0  0  0  0  0  0  0  0
   -1.4095    4.0269   -0.7117 C   0  0  0  0  0  0  0  0  0  0  0  0
   -1.6924    2.6597   -0.6342 C   0  0  0  0  0  0  0  0  0  0  0  0
   -0.6888    1.7386   -0.7411 N   0  0  0  0  0  0  0  0  0  0  0  0
    1.2734   -0.6991   -0.7908 C   0  0  0  0  0  0  0  0  0  0  0  0
    1.9336   -1.6614   -0.3149 O   0  0  0  0  0  0  0  0  0  0  0  0
    1.9575    0.3981   -1.4108 N   0  0  0  0  0  0  0  0  0  0  0  0
    3.3396    0.6777   -1.1625 C   0  0  0  0  0  0  0  0  0  0  0  0
    3.9594    0.7655    0.0906 C   0  0  0  0  0  0  0  0  0  0  0  0
    5.3441    1.0240   -0.0226 C   0  0  0  0  0  0  0  0  0  0  0  0
    5.7791    1.1042   -1.3446 C   0  0  0  0  0  0  0  0  0  0  0  0
    4.4696    0.9287   -2.3813 S   0  0  0  0  0  0  0  0  0  0  0  0
    7.1762    1.4518   -1.7594 C   0  0  0  0  0  0  0  0  0  0  0  0
    8.1606    1.2195   -0.6039 C   0  0  0  0  0  0  0  0  0  0  0  0
    7.6278    1.8273    0.7031 C   0  0  0  0  0  0  0  0  0  0  0  0
    6.3051    1.1675    1.1330 C   0  0  0  0  0  0  0  0  0  0  0  0
    3.2272    0.6862    1.3723 C   0  0  0  0  0  0  0  0  0  0  0  0
    3.8027    0.2511    2.4068 O   0  0  0  0  0  0  0  0  0  0  0  0
    1.8925    1.0998    1.4310 O   0  0  0  0  0  0  0  0  0  0  0  0
    1.1011    0.9888    2.6068 C   0  0  0  0  0  0  0  0  0  0  0  0
   -0.7055   -3.1494   -0.5185 N   0  0  0  0  0  0  0  0  0  0  0  0
   -4.7178   -4.8112    2.3168 C   0  0  0  0  0  0  0  0  0  0  0  0
   -6.9961   -3.1983   -2.3476 H   0  0  0  0  0  0  0  0  0  0  0  0
   -7.9923   -2.7135   -0.9180 H   0  0  0  0  0  0  0  0  0  0  0  0
   -7.1310   -1.4583   -1.8729 H   0  0  0  0  0  0  0  0  0  0  0  0
   -6.7408   -4.2081    0.6017 H   0  0  0  0  0  0  0  0  0  0  0  0
   -2.6816   -3.1685    1.5735 H   0  0  0  0  0  0  0  0  0  0  0  0
   -4.6768   -1.2108   -1.6910 H   0  0  0  0  0  0  0  0  0  0  0  0
   -5.0852    2.8535   -0.1610 H   0  0  0  0  0  0  0  0  0  0  0  0
   -4.5565    5.2666   -0.3077 H   0  0  0  0  0  0  0  0  0  0  0  0
   -2.2231    6.0192   -0.6555 H   0  0  0  0  0  0  0  0  0  0  0  0
   -0.3922    4.3668   -0.8617 H   0  0  0  0  0  0  0  0  0  0  0  0
    1.4834    0.9082   -2.1891 H   0  0  0  0  0  0  0  0  0  0  0  0
    7.4729    0.8318   -2.6319 H   0  0  0  0  0  0  0  0  0  0  0  0
    7.2027    2.5211   -2.0601 H   0  0  0  0  0  0  0  0  0  0  0  0
    8.3238    0.1279   -0.4657 H   0  0  0  0  0  0  0  0  0  0  0  0
    9.1383    1.6832   -0.8567 H   0  0  0  0  0  0  0  0  0  0  0  0
    7.4698    2.9196    0.5640 H   0  0  0  0  0  0  0  0  0  0  0  0
    8.3823    1.6922    1.5077 H   0  0  0  0  0  0  0  0  0  0  0  0
    6.5164    0.1576    1.5456 H   0  0  0  0  0  0  0  0  0  0  0  0
    5.8476    1.7881    1.9326 H   0  0  0  0  0  0  0  0  0  0  0  0
    0.0829    1.3764    2.3969 H   0  0  0  0  0  0  0  0  0  0  0  0
    1.0235   -0.0762    2.9119 H   0  0  0  0  0  0  0  0  0  0  0  0
    1.5529    1.5848    3.4277 H   0  0  0  0  0  0  0  0  0  0  0  0
   -1.4292   -3.8992   -0.4781 H   0  0  0  0  0  0  0  0  0  0  0  0
    0.2804   -3.4437   -0.6845 H   0  0  0  0  0  0  0  0  0  0  0  0
   -5.7380   -4.9386    2.7377 H   0  0  0  0  0  0  0  0  0  0  0  0
   -4.0423   -4.5037    3.1433 H   0  0  0  0  0  0  0  0  0  0  0  0
   -4.3708   -5.7830    1.9079 H   0  0  0  0  0  0  0  0  0  0  0  0
  1  2  1  0
  2  3  2  0
  3  4  1  0
  4  5  2  0
  5  6  1  0
  6  7  2  0
  6  8  1  0
  8  9  1  0
  9 10  2  0
 10 11  1  0
 11 12  2  0
 12 13  1  0
 13 14  2  0
 14 15  1  0
 15 16  2  0
 16 17  1  0
 17 18  2  0
 18 19  1  0
 19 20  2  0
 10 21  1  0
 21 22  2  0
 21 23  1  0
 23 24  1  0
 24 25  2  0
 25 26  1  0
 26 27  2  0
 27 28  1  0
 27 29  1  0
 29 30  1  0
 30 31  1  0
 31 32  1  0
 25 33  1  0
 33 34  2  0
 33 35  1  0
 35 36  1  0
  9 37  1  0
  4 38  1  0
  7  2  1  0
 12  8  1  0
 20 11  1  0
 19 14  1  0
 28 24  1  0
 32 26  1  0
  1 39  1  0
  1 40  1  0
  1 41  1  0
  3 42  1  0
  5 43  1  0
  7 44  1  0
 15 45  1  0
 16 46  1  0
 17 47  1  0
 18 48  1  0
 23 49  1  0
 29 50  1  0
 29 51  1  0
 30 52  1  0
 30 53  1  0
 31 54  1  0
 31 55  1  0
 32 56  1  0
 32 57  1  0
 36 58  1  0
 36 59  1  0
 36 60  1  0
 37 61  1  0
 37 62  1  0
 38 63  1  0
 38 64  1  0
 38 65  1  0
M  END
$$$$
