
     RDKit          3D

 65 70  0  0  0  0  0  0  0  0999 V2000
   -6.9503   -0.5452   -2.6542 C   0  0  0  0  0  0  0  0  0  0  0  0
   -6.1864   -0.9572   -1.4306 C   0  0  0  0  0  0  0  0  0  0  0  0
   -6.7626   -1.8356   -0.5009 C   0  0  0  0  0  0  0  0  0  0  0  0
   -6.0366   -2.2566    0.6231 C   0  0  0  0  0  0  0  0  0  0  0  0
   -4.7326   -1.7805    0.8220 C   0  0  0  0  0  0  0  0  0  0  0  0
   -4.1359   -0.9250   -0.1163 C   0  0  0  0  0  0  0  0  0  0  0  0
   -4.8680   -0.5181   -1.2419 C   0  0  0  0  0  0  0  0  0  0  0  0
   -2.7982   -0.4408    0.0897 N   0  0  0  0  0  0  0  0  0  0  0  0
   -1.6792   -1.1590    0.3891 C   0  0  0  0  0  0  0  0  0  0  0  0
   -0.5662   -0.3166    0.5493 C   0  0  0  0  0  0  0  0  0  0  0  0
   -1.0647    0.9517    0.3276 C   0  0  0  0  0  0  0  0  0  0  0  0
   -2.3953    0.8426    0.0527 C   0  0  0  0  0  0  0  0  0  0  0  0
   -3.1598    1.9312   -0.2128 N   0  0  0  0  0  0  0  0  0  0  0  0
   -2.5611    3.1598   -0.2181 C   0  0  0  0  0  0  0  0  0  0  0  0
   -3.3080    4.3103   -0.4901 C   0  0  0  0  0  0  0  0  0  0  0  0
   -2.6833    5.5621   -0.4988 C   0  0  0  0  0  0  0  0  0  0  0  0
   -1.3123    5.6708   -0.2369 C   0  0  0  0  0  0  0  0  0  0  0  0
   -0.5518    4.5289    0.0370 C   0  0  0  0  0  0  0  0  0  0  0  0
   -1.1621    3.2709    0.0502 C   0  0  0  0  0  0  0  0  0  0  0  0
   -0.4293    2.1491    0.3187 N   0  0  0  0  0  0  0  0  0  0  0  0
    0.8417   -0.6797    0.8080 C   0  0  0  0  0  0  0  0  0  0  0  0
    1.2483   -1.8434    0.5460 O   0  0  0  0  0  0  0  0  0  0  0  0
    1.7496    0.2875    1.3558 N   0  0  0  0  0  0  0  0  0  0  0  0
    3.1685    0.0902    1.3783 C   0  0  0  0  0  0  0  0  0  0  0  0
    3.9752   -0.3245    0.3081 C   0  0  0  0  0  0  0  0  0  0  0  0
    5.3306   -0.4631    0.6925 C   0  0  0  0  0  0  0  0  0  0  0  0
    5.5611   -0.0806    2.0138 C   0  0  0  0  0  0  0  0  0  0  0  0
    4.1132    0.3512    2.7430 S   0  0  0  0  0  0  0  0  0  0  0  0
    6.8980   -0.1107    2.6881 C   0  0  0  0  0  0  0  0  0  0  0  0
    8.0259   -0.0737    1.6486 C   0  0  0  0  0  0  0  0  0  0  0  0
    7.7774   -1.1032    0.5366 C   0  0  0  0  0  0  0  0  0  0  0  0
    6.4758   -0.8079   -0.2320 C   0  0  0  0  0  0  0  0  0  0  0  0
    3.4833   -0.4635   -1.0813 C   0  0  0  0  0  0  0  0  0  0  0  0
    2.5023    0.2283   -1.4700 O   0  0  0  0  0  0  0  0  0  0  0  0
    4.1048   -1.3495   -1.9649 O   0  0  0  0  0  0  0  0  0  0  0  0
    3.6748   -1.5212   -3.3097 C   0  0  0  0  0  0  0  0  0  0  0  0
   -1.6563   -2.5877    0.4855 N   0  0  0  0  0  0  0  0  0  0  0  0
   -6.6766   -3.1507    1.6437 C   0  0  0  0  0  0  0  0  0  0  0  0
   -8.0407   -0.5135   -2.4439 H   0  0  0  0  0  0  0  0  0  0  0  0
   -6.7598   -1.2727   -3.4705 H   0  0  0  0  0  0  0  0  0  0  0  0
   -6.6368    0.4664   -2.9897 H   0  0  0  0  0  0  0  0  0  0  0  0
   -7.7762   -2.1889   -0.6506 H   0  0  0  0  0  0  0  0  0  0  0  0
   -4.1824   -2.0692    1.7096 H   0  0  0  0  0  0  0  0  0  0  0  0
   -4.4074    0.1359   -1.9726 H   0  0  0  0  0  0  0  0  0  0  0  0
   -4.3688    4.2375   -0.6957 H   0  0  0  0  0  0  0  0  0  0  0  0
   -3.2631    6.4514   -0.7098 H   0  0  0  0  0  0  0  0  0  0  0  0
   -0.8382    6.6437   -0.2463 H   0  0  0  0  0  0  0  0  0  0  0  0
    0.5079    4.6245    0.2387 H   0  0  0  0  0  0  0  0  0  0  0  0
    1.3592    1.0568    1.9442 H   0  0  0  0  0  0  0  0  0  0  0  0
    6.9943    0.7604    3.3708 H   0  0  0  0  0  0  0  0  0  0  0  0
    6.9744   -1.0417    3.2896 H   0  0  0  0  0  0  0  0  0  0  0  0
    8.0930    0.9440    1.2043 H   0  0  0  0  0  0  0  0  0  0  0  0
    8.9931   -0.2948    2.1490 H   0  0  0  0  0  0  0  0  0  0  0  0
    7.7209   -2.1201    0.9843 H   0  0  0  0  0  0  0  0  0  0  0  0
    8.6319   -1.0926   -0.1739 H   0  0  0  0  0  0  0  0  0  0  0  0
    6.2277   -1.7090   -0.8284 H   0  0  0  0  0  0  0  0  0  0  0  0
    6.6425    0.0444   -0.9253 H   0  0  0  0  0  0  0  0  0  0  0  0
    3.7551   -0.5598   -3.8600 H   0  0  0  0  0  0  0  0  0  0  0  0
    2.6236   -1.8792   -3.3298 H   0  0  0  0  0  0  0  0  0  0  0  0
    4.3210   -2.2742   -3.8053 H   0  0  0  0  0  0  0  0  0  0  0  0
   -0.8316   -3.0938    0.8727 H   0  0  0  0  0  0  0  0  0  0  0  0
   -2.4716   -3.1583    0.1728 H   0  0  0  0  0  0  0  0  0  0  0  0
   -7.1897   -2.5303    2.4078 H   0  0  0  0  0  0  0  0  0  0  0  0
   -7.4192   -3.8239    1.1648 H   0  0  0  0  0  0  0  0  0  0  0  0
   -5.9129   -3.7837    2.1438 H   0  0  0  0  0  0  0  0  0  0  0  0
  1  2  1  0
  2  3  2  0
  3  4  1  0
  4  5  2  0
  5  6  1  0
  6  7  2  0
  6  8  1  0
  8  9  1  0
  9 10  2  0
 10 11  1  0
 11 12  2  0
 12 13  1  0
 13 14  2  0
 14 15  1  0
 15 16  2  0
 16 17  1  0
 17 18  2  0
 18 19  1  0
 19 20  2  0
 10 21  1  0
 21 22  2  0
 21 23  1  0
 23 24  1  0
 24 25  2  0
 25 26  1  0
 26 27  2  0
 27 28  1  0
 27 29  1  0
 29 30  1  0
 30 31  1  0
 31 32  1  0
 25 33  1  0
 33 34  2  0
 33 35  1  0
 35 36  1  0
  9 37  1  0
  4 38  1  0
  7  2  1  0
 12  8  1  0
 20 11  1  0
 19 14  1  0
 28 24  1  0
 32 26  1  0
  1 39  1  0
  1 40  1  0
  1 41  1  0
  3 42  1  0
  5 43  1  0
  7 44  1  0
 15 45  1  0
 16 46  1  0
 17 47  1  0
 18 48  1  0
 23 49  1  0
 29 50  1  0
 29 51  1  0
 30 52  1  0
 30 53  1  0
 31 54  1  0
 31 55  1  0
 32 56  1  0
 32 57  1  0
 36 58  1  0
 36 59  1  0
 36 60  1  0
 37 61  1  0
 37 62  1  0
 38 63  1  0
 38 64  1  0
 38 65  1  0
M  END
$$$$
