
     RDKit          3D

 65 70  0  0  0  0  0  0  0  0999 V2000
   -7.4379   -0.2271    2.6148 C   0  0  0  0  0  0  0  0  0  0  0  0
   -6.5507   -0.9050    1.6129 C   0  0  0  0  0  0  0  0  0  0  0  0
   -7.0875   -1.8330    0.7084 C   0  0  0  0  0  0  0  0  0  0  0  0
   -6.2679   -2.4461   -0.2508 C   0  0  0  0  0  0  0  0  0  0  0  0
   -4.9127   -2.0939   -0.3288 C   0  0  0  0  0  0  0  0  0  0  0  0
   -4.3666   -1.1607    0.5652 C   0  0  0  0  0  0  0  0  0  0  0  0
   -5.1937   -0.5611    1.5268 C   0  0  0  0  0  0  0  0  0  0  0  0
   -2.9812   -0.7889    0.4702 N   0  0  0  0  0  0  0  0  0  0  0  0
   -1.8926   -1.6062    0.4080 C   0  0  0  0  0  0  0  0  0  0  0  0
   -0.7077   -0.8616    0.2807 C   0  0  0  0  0  0  0  0  0  0  0  0
   -1.1319    0.4529    0.2729 C   0  0  0  0  0  0  0  0  0  0  0  0
   -2.4899    0.4613    0.3909 C   0  0  0  0  0  0  0  0  0  0  0  0
   -3.1965    1.6191    0.4125 N   0  0  0  0  0  0  0  0  0  0  0  0
   -2.5122    2.7994    0.3312 C   0  0  0  0  0  0  0  0  0  0  0  0
   -3.1974    4.0182    0.3528 C   0  0  0  0  0  0  0  0  0  0  0  0
   -2.4860    5.2203    0.2741 C   0  0  0  0  0  0  0  0  0  0  0  0
   -1.0896    5.2112    0.1742 C   0  0  0  0  0  0  0  0  0  0  0  0
   -0.3901    3.9998    0.1514 C   0  0  0  0  0  0  0  0  0  0  0  0
   -1.0873    2.7901    0.2285 C   0  0  0  0  0  0  0  0  0  0  0  0
   -0.4144    1.6010    0.2043 N   0  0  0  0  0  0  0  0  0  0  0  0
    0.6885   -1.3445    0.2419 C   0  0  0  0  0  0  0  0  0  0  0  0
    0.9713   -2.4740    0.7230 O   0  0  0  0  0  0  0  0  0  0  0  0
    1.7177   -0.5402   -0.3544 N   0  0  0  0  0  0  0  0  0  0  0  0
    3.1188   -0.7363   -0.1022 C   0  0  0  0  0  0  0  0  0  0  0  0
    4.1678   -0.2307   -0.8842 C   0  0  0  0  0  0  0  0  0  0  0  0
    5.4340   -0.4821   -0.3072 C   0  0  0  0  0  0  0  0  0  0  0  0
    5.3575   -1.1223    0.9273 C   0  0  0  0  0  0  0  0  0  0  0  0
    3.7526   -1.4400    1.2941 S   0  0  0  0  0  0  0  0  0  0  0  0
    6.5409   -1.5757    1.7268 C   0  0  0  0  0  0  0  0  0  0  0  0
    7.8127   -0.8362    1.2860 C   0  0  0  0  0  0  0  0  0  0  0  0
    7.9369   -0.8188   -0.2457 C   0  0  0  0  0  0  0  0  0  0  0  0
    6.7613   -0.0674   -0.8953 C   0  0  0  0  0  0  0  0  0  0  0  0
    3.9754    0.4640   -2.1755 C   0  0  0  0  0  0  0  0  0  0  0  0
    2.9928    0.1703   -2.9100 O   0  0  0  0  0  0  0  0  0  0  0  0
    4.8888    1.4400   -2.5851 O   0  0  0  0  0  0  0  0  0  0  0  0
    4.7670    2.1365   -3.8191 C   0  0  0  0  0  0  0  0  0  0  0  0
   -1.9669   -3.0338    0.4952 N   0  0  0  0  0  0  0  0  0  0  0  0
   -6.8543   -3.4095   -1.2399 C   0  0  0  0  0  0  0  0  0  0  0  0
   -6.8649    0.0398    3.5284 H   0  0  0  0  0  0  0  0  0  0  0  0
   -7.8590    0.6978    2.1684 H   0  0  0  0  0  0  0  0  0  0  0  0
   -8.2716   -0.8962    2.9167 H   0  0  0  0  0  0  0  0  0  0  0  0
   -8.1427   -2.0769    0.7499 H   0  0  0  0  0  0  0  0  0  0  0  0
   -4.2848   -2.5321   -1.0953 H   0  0  0  0  0  0  0  0  0  0  0  0
   -4.7776    0.1675    2.2121 H   0  0  0  0  0  0  0  0  0  0  0  0
   -4.2774    4.0368    0.4313 H   0  0  0  0  0  0  0  0  0  0  0  0
   -3.0182    6.1626    0.2912 H   0  0  0  0  0  0  0  0  0  0  0  0
   -0.5482    6.1464    0.1140 H   0  0  0  0  0  0  0  0  0  0  0  0
    0.6901    4.0041    0.0730 H   0  0  0  0  0  0  0  0  0  0  0  0
    1.4299    0.2283   -0.9980 H   0  0  0  0  0  0  0  0  0  0  0  0
    6.3572   -1.3896    2.8063 H   0  0  0  0  0  0  0  0  0  0  0  0
    6.6756   -2.6680    1.5745 H   0  0  0  0  0  0  0  0  0  0  0  0
    8.7005   -1.3407    1.7241 H   0  0  0  0  0  0  0  0  0  0  0  0
    7.7885    0.2084    1.6676 H   0  0  0  0  0  0  0  0  0  0  0  0
    8.8901   -0.3253   -0.5334 H   0  0  0  0  0  0  0  0  0  0  0  0
    7.9655   -1.8639   -0.6256 H   0  0  0  0  0  0  0  0  0  0  0  0
    6.8942    1.0245   -0.7374 H   0  0  0  0  0  0  0  0  0  0  0  0
    6.7726   -0.2723   -1.9871 H   0  0  0  0  0  0  0  0  0  0  0  0
    3.8086    2.6972   -3.8461 H   0  0  0  0  0  0  0  0  0  0  0  0
    4.8068    1.4190   -4.6659 H   0  0  0  0  0  0  0  0  0  0  0  0
    5.6069    2.8545   -3.9164 H   0  0  0  0  0  0  0  0  0  0  0  0
   -2.8543   -3.5075    0.7711 H   0  0  0  0  0  0  0  0  0  0  0  0
   -1.1431   -3.6354    0.2814 H   0  0  0  0  0  0  0  0  0  0  0  0
   -7.2101   -2.8522   -2.1315 H   0  0  0  0  0  0  0  0  0  0  0  0
   -7.7086   -3.9602   -0.7916 H   0  0  0  0  0  0  0  0  0  0  0  0
   -6.0949   -4.1554   -1.5577 H   0  0  0  0  0  0  0  0  0  0  0  0
  1  2  1  0
  2  3  2  0
  3  4  1  0
  4  5  2  0
  5  6  1  0
  6  7  2  0
  6  8  1  0
  8  9  1  0
  9 10  2  0
 10 11  1  0
 11 12  2  0
 12 13  1  0
 13 14  2  0
 14 15  1  0
 15 16  2  0
 16 17  1  0
 17 18  2  0
 18 19  1  0
 19 20  2  0
 10 21  1  0
 21 22  2  0
 21 23  1  0
 23 24  1  0
 24 25  2  0
 25 26  1  0
 26 27  2  0
 27 28  1  0
 27 29  1  0
 29 30  1  0
 30 31  1  0
 31 32  1  0
 25 33  1  0
 33 34  2  0
 33 35  1  0
 35 36  1  0
  9 37  1  0
  4 38  1  0
  7  2  1  0
 12  8  1  0
 20 11  1  0
 19 14  1  0
 28 24  1  0
 32 26  1  0
  1 39  1  0
  1 40  1  0
  1 41  1  0
  3 42  1  0
  5 43  1  0
  7 44  1  0
 15 45  1  0
 16 46  1  0
 17 47  1  0
 18 48  1  0
 23 49  1  0
 29 50  1  0
 29 51  1  0
 30 52  1  0
 30 53  1  0
 31 54  1  0
 31 55  1  0
 32 56  1  0
 32 57  1  0
 36 58  1  0
 36 59  1  0
 36 60  1  0
 37 61  1  0
 37 62  1  0
 38 63  1  0
 38 64  1  0
 38 65  1  0
M  END
$$$$
