
     RDKit          3D

 65 70  0  0  0  0  0  0  0  0999 V2000
   -6.4050    2.8520   -1.8278 C   0  0  0  0  0  0  0  0  0  0  0  0
   -5.7811    2.2988   -0.5807 C   0  0  0  0  0  0  0  0  0  0  0  0
   -6.4360    2.4269    0.6532 C   0  0  0  0  0  0  0  0  0  0  0  0
   -5.8373    1.9489    1.8283 C   0  0  0  0  0  0  0  0  0  0  0  0
   -4.5830    1.3251    1.7608 C   0  0  0  0  0  0  0  0  0  0  0  0
   -3.9064    1.2172    0.5365 C   0  0  0  0  0  0  0  0  0  0  0  0
   -4.5102    1.7080   -0.6309 C   0  0  0  0  0  0  0  0  0  0  0  0
   -2.6195    0.5799    0.4722 N   0  0  0  0  0  0  0  0  0  0  0  0
   -1.5200    0.8238    1.2396 C   0  0  0  0  0  0  0  0  0  0  0  0
   -0.4590   -0.0249    0.8849 C   0  0  0  0  0  0  0  0  0  0  0  0
   -0.9661   -0.7946   -0.1416 C   0  0  0  0  0  0  0  0  0  0  0  0
   -2.2530   -0.4068   -0.3667 C   0  0  0  0  0  0  0  0  0  0  0  0
   -3.0084   -0.9750   -1.3396 N   0  0  0  0  0  0  0  0  0  0  0  0
   -2.4436   -1.9487   -2.1149 C   0  0  0  0  0  0  0  0  0  0  0  0
   -3.1819   -2.5608   -3.1325 C   0  0  0  0  0  0  0  0  0  0  0  0
   -2.5904   -3.5498   -3.9258 C   0  0  0  0  0  0  0  0  0  0  0  0
   -1.2611   -3.9310   -3.7079 C   0  0  0  0  0  0  0  0  0  0  0  0
   -0.5095   -3.3279   -2.6937 C   0  0  0  0  0  0  0  0  0  0  0  0
   -1.0873   -2.3391   -1.8914 C   0  0  0  0  0  0  0  0  0  0  0  0
   -0.3625   -1.7438   -0.8978 N   0  0  0  0  0  0  0  0  0  0  0  0
    0.9296   -0.0322    1.3823 C   0  0  0  0  0  0  0  0  0  0  0  0
    1.4070    0.9959    1.9333 O   0  0  0  0  0  0  0  0  0  0  0  0
    1.7487   -1.1974    1.2158 N   0  0  0  0  0  0  0  0  0  0  0  0
    3.1791   -1.1400    1.2498 C   0  0  0  0  0  0  0  0  0  0  0  0
    3.9929   -0.2330    0.5576 C   0  0  0  0  0  0  0  0  0  0  0  0
    5.3636   -0.4202    0.8558 C   0  0  0  0  0  0  0  0  0  0  0  0
    5.5906   -1.5057    1.7017 C   0  0  0  0  0  0  0  0  0  0  0  0
    4.1273   -2.1941    2.1513 S   0  0  0  0  0  0  0  0  0  0  0  0
    6.9403   -1.9405    2.1841 C   0  0  0  0  0  0  0  0  0  0  0  0
    8.0403   -1.4284    1.2443 C   0  0  0  0  0  0  0  0  0  0  0  0
    7.8469    0.0641    0.9371 C   0  0  0  0  0  0  0  0  0  0  0  0
    6.5115    0.3266    0.2168 C   0  0  0  0  0  0  0  0  0  0  0  0
    3.4739    0.7064   -0.4616 C   0  0  0  0  0  0  0  0  0  0  0  0
    4.0810    1.7836   -0.7066 O   0  0  0  0  0  0  0  0  0  0  0  0
    2.3060    0.3857   -1.1612 O   0  0  0  0  0  0  0  0  0  0  0  0
    1.7063    1.2627   -2.1060 C   0  0  0  0  0  0  0  0  0  0  0  0
   -1.4597    1.8489    2.2377 N   0  0  0  0  0  0  0  0  0  0  0  0
   -6.5656    2.0376    3.1367 C   0  0  0  0  0  0  0  0  0  0  0  0
   -6.0866    2.2680   -2.7176 H   0  0  0  0  0  0  0  0  0  0  0  0
   -6.0937    3.9094   -1.9582 H   0  0  0  0  0  0  0  0  0  0  0  0
   -7.5132    2.8052   -1.7661 H   0  0  0  0  0  0  0  0  0  0  0  0
   -7.4120    2.8959    0.6986 H   0  0  0  0  0  0  0  0  0  0  0  0
   -4.1341    0.9173    2.6585 H   0  0  0  0  0  0  0  0  0  0  0  0
   -3.9865    1.6348   -1.5764 H   0  0  0  0  0  0  0  0  0  0  0  0
   -4.2101   -2.2717   -3.3115 H   0  0  0  0  0  0  0  0  0  0  0  0
   -3.1635   -4.0221   -4.7132 H   0  0  0  0  0  0  0  0  0  0  0  0
   -0.8122   -4.6965   -4.3276 H   0  0  0  0  0  0  0  0  0  0  0  0
    0.5181   -3.6301   -2.5338 H   0  0  0  0  0  0  0  0  0  0  0  0
    1.2923   -2.1366    1.2329 H   0  0  0  0  0  0  0  0  0  0  0  0
    7.1027   -1.5338    3.2052 H   0  0  0  0  0  0  0  0  0  0  0  0
    6.9820   -3.0494    2.2344 H   0  0  0  0  0  0  0  0  0  0  0  0
    8.0214   -2.0081    0.2950 H   0  0  0  0  0  0  0  0  0  0  0  0
    9.0317   -1.5831    1.7217 H   0  0  0  0  0  0  0  0  0  0  0  0
    7.8754    0.6414    1.8877 H   0  0  0  0  0  0  0  0  0  0  0  0
    8.6833    0.4206    0.2981 H   0  0  0  0  0  0  0  0  0  0  0  0
    6.5966    0.0073   -0.8442 H   0  0  0  0  0  0  0  0  0  0  0  0
    6.3204    1.4189    0.2449 H   0  0  0  0  0  0  0  0  0  0  0  0
    2.4127    1.4666   -2.9382 H   0  0  0  0  0  0  0  0  0  0  0  0
    0.7930    0.7846   -2.5164 H   0  0  0  0  0  0  0  0  0  0  0  0
    1.4209    2.2149   -1.6109 H   0  0  0  0  0  0  0  0  0  0  0  0
   -0.6625    1.9087    2.9066 H   0  0  0  0  0  0  0  0  0  0  0  0
   -2.2176    2.5606    2.3213 H   0  0  0  0  0  0  0  0  0  0  0  0
   -7.1871    1.1284    3.2755 H   0  0  0  0  0  0  0  0  0  0  0  0
   -5.8472    2.1179    3.9803 H   0  0  0  0  0  0  0  0  0  0  0  0
   -7.2226    2.9330    3.1601 H   0  0  0  0  0  0  0  0  0  0  0  0
  1  2  1  0
  2  3  2  0
  3  4  1  0
  4  5  2  0
  5  6  1  0
  6  7  2  0
  6  8  1  0
  8  9  1  0
  9 10  2  0
 10 11  1  0
 11 12  2  0
 12 13  1  0
 13 14  2  0
 14 15  1  0
 15 16  2  0
 16 17  1  0
 17 18  2  0
 18 19  1  0
 19 20  2  0
 10 21  1  0
 21 22  2  0
 21 23  1  0
 23 24  1  0
 24 25  2  0
 25 26  1  0
 26 27  2  0
 27 28  1  0
 27 29  1  0
 29 30  1  0
 30 31  1  0
 31 32  1  0
 25 33  1  0
 33 34  2  0
 33 35  1  0
 35 36  1  0
  9 37  1  0
  4 38  1  0
  7  2  1  0
 12  8  1  0
 20 11  1  0
 19 14  1  0
 28 24  1  0
 32 26  1  0
  1 39  1  0
  1 40  1  0
  1 41  1  0
  3 42  1  0
  5 43  1  0
  7 44  1  0
 15 45  1  0
 16 46  1  0
 17 47  1  0
 18 48  1  0
 23 49  1  0
 29 50  1  0
 29 51  1  0
 30 52  1  0
 30 53  1  0
 31 54  1  0
 31 55  1  0
 32 56  1  0
 32 57  1  0
 36 58  1  0
 36 59  1  0
 36 60  1  0
 37 61  1  0
 37 62  1  0
 38 63  1  0
 38 64  1  0
 38 65  1  0
M  END
$$$$
