
     RDKit          3D

 65 70  0  0  0  0  0  0  0  0999 V2000
    7.2509    2.1874   -1.0578 C   0  0  0  0  0  0  0  0  0  0  0  0
    6.4235    0.9427   -1.1870 C   0  0  0  0  0  0  0  0  0  0  0  0
    7.0238   -0.2681   -1.5631 C   0  0  0  0  0  0  0  0  0  0  0  0
    6.2603   -1.4413   -1.6545 C   0  0  0  0  0  0  0  0  0  0  0  0
    4.8973   -1.4063   -1.3263 C   0  0  0  0  0  0  0  0  0  0  0  0
    4.2879   -0.2026   -0.9414 C   0  0  0  0  0  0  0  0  0  0  0  0
    5.0594    0.9665   -0.8623 C   0  0  0  0  0  0  0  0  0  0  0  0
    2.8950   -0.1751   -0.5870 N   0  0  0  0  0  0  0  0  0  0  0  0
    1.8383   -0.6793   -1.2847 C   0  0  0  0  0  0  0  0  0  0  0  0
    0.6342   -0.4846   -0.5868 C   0  0  0  0  0  0  0  0  0  0  0  0
    1.0128    0.1659    0.5712 C   0  0  0  0  0  0  0  0  0  0  0  0
    2.3647    0.3372    0.5386 C   0  0  0  0  0  0  0  0  0  0  0  0
    3.0360    0.9064    1.5710 N   0  0  0  0  0  0  0  0  0  0  0  0
    2.3217    1.3268    2.6576 C   0  0  0  0  0  0  0  0  0  0  0  0
    2.9692    1.9289    3.7410 C   0  0  0  0  0  0  0  0  0  0  0  0
    2.2282    2.3512    4.8501 C   0  0  0  0  0  0  0  0  0  0  0  0
    0.8399    2.1732    4.8832 C   0  0  0  0  0  0  0  0  0  0  0  0
    0.1782    1.5709    3.8077 C   0  0  0  0  0  0  0  0  0  0  0  0
    0.9051    1.1451    2.6916 C   0  0  0  0  0  0  0  0  0  0  0  0
    0.2696    0.5521    1.6371 N   0  0  0  0  0  0  0  0  0  0  0  0
   -0.7313   -0.9044   -0.9649 C   0  0  0  0  0  0  0  0  0  0  0  0
   -0.8885   -1.8627   -1.7675 O   0  0  0  0  0  0  0  0  0  0  0  0
   -1.8748   -0.2173   -0.4337 N   0  0  0  0  0  0  0  0  0  0  0  0
   -3.2053   -0.7589   -0.4614 C   0  0  0  0  0  0  0  0  0  0  0  0
   -4.3881   -0.0237   -0.3010 C   0  0  0  0  0  0  0  0  0  0  0  0
   -5.5309   -0.8552   -0.2417 C   0  0  0  0  0  0  0  0  0  0  0  0
   -5.2252   -2.2128   -0.2993 C   0  0  0  0  0  0  0  0  0  0  0  0
   -3.5698   -2.4060   -0.4841 S   0  0  0  0  0  0  0  0  0  0  0  0
   -6.2405   -3.3143   -0.3288 C   0  0  0  0  0  0  0  0  0  0  0  0
   -7.5957   -2.8208    0.1988 C   0  0  0  0  0  0  0  0  0  0  0  0
   -7.9738   -1.4710   -0.4311 C   0  0  0  0  0  0  0  0  0  0  0  0
   -6.9528   -0.3774   -0.0697 C   0  0  0  0  0  0  0  0  0  0  0  0
   -4.4330    1.4529   -0.2329 C   0  0  0  0  0  0  0  0  0  0  0  0
   -5.3417    2.0284    0.4259 O   0  0  0  0  0  0  0  0  0  0  0  0
   -3.4712    2.2100   -0.9089 O   0  0  0  0  0  0  0  0  0  0  0  0
   -3.4448    3.6314   -0.8686 C   0  0  0  0  0  0  0  0  0  0  0  0
    1.9473   -1.2166   -2.6083 N   0  0  0  0  0  0  0  0  0  0  0  0
    6.9143   -2.7408   -2.0202 C   0  0  0  0  0  0  0  0  0  0  0  0
    7.6550    2.2562   -0.0263 H   0  0  0  0  0  0  0  0  0  0  0  0
    6.6372    3.0894   -1.2674 H   0  0  0  0  0  0  0  0  0  0  0  0
    8.0962    2.1732   -1.7783 H   0  0  0  0  0  0  0  0  0  0  0  0
    8.0847   -0.2976   -1.7828 H   0  0  0  0  0  0  0  0  0  0  0  0
    4.3123   -2.3178   -1.3534 H   0  0  0  0  0  0  0  0  0  0  0  0
    4.5944    1.8953   -0.5544 H   0  0  0  0  0  0  0  0  0  0  0  0
    4.0428    2.0704    3.7264 H   0  0  0  0  0  0  0  0  0  0  0  0
    2.7311    2.8175    5.6874 H   0  0  0  0  0  0  0  0  0  0  0  0
    0.2755    2.5027    5.7459 H   0  0  0  0  0  0  0  0  0  0  0  0
   -0.8959    1.4372    3.8440 H   0  0  0  0  0  0  0  0  0  0  0  0
   -1.7292    0.7216   -0.0039 H   0  0  0  0  0  0  0  0  0  0  0  0
   -6.3557   -3.6638   -1.3772 H   0  0  0  0  0  0  0  0  0  0  0  0
   -5.8875   -4.1660    0.2906 H   0  0  0  0  0  0  0  0  0  0  0  0
   -7.5491   -2.7134    1.3050 H   0  0  0  0  0  0  0  0  0  0  0  0
   -8.3779   -3.5732   -0.0398 H   0  0  0  0  0  0  0  0  0  0  0  0
   -8.0247   -1.5811   -1.5368 H   0  0  0  0  0  0  0  0  0  0  0  0
   -8.9800   -1.1649   -0.0723 H   0  0  0  0  0  0  0  0  0  0  0  0
   -7.1373    0.5049   -0.7189 H   0  0  0  0  0  0  0  0  0  0  0  0
   -7.1002   -0.0754    0.9895 H   0  0  0  0  0  0  0  0  0  0  0  0
   -4.3885    4.0413   -1.2868 H   0  0  0  0  0  0  0  0  0  0  0  0
   -3.3149    3.9792    0.1781 H   0  0  0  0  0  0  0  0  0  0  0  0
   -2.5926    3.9971   -1.4772 H   0  0  0  0  0  0  0  0  0  0  0  0
    1.1070   -1.5240   -3.1423 H   0  0  0  0  0  0  0  0  0  0  0  0
    2.8617   -1.2250   -3.1097 H   0  0  0  0  0  0  0  0  0  0  0  0
    6.1928   -3.4115   -2.5338 H   0  0  0  0  0  0  0  0  0  0  0  0
    7.7708   -2.5692   -2.7065 H   0  0  0  0  0  0  0  0  0  0  0  0
    7.2819   -3.2408   -1.0999 H   0  0  0  0  0  0  0  0  0  0  0  0
  1  2  1  0
  2  3  2  0
  3  4  1  0
  4  5  2  0
  5  6  1  0
  6  7  2  0
  6  8  1  0
  8  9  1  0
  9 10  2  0
 10 11  1  0
 11 12  2  0
 12 13  1  0
 13 14  2  0
 14 15  1  0
 15 16  2  0
 16 17  1  0
 17 18  2  0
 18 19  1  0
 19 20  2  0
 10 21  1  0
 21 22  2  0
 21 23  1  0
 23 24  1  0
 24 25  2  0
 25 26  1  0
 26 27  2  0
 27 28  1  0
 27 29  1  0
 29 30  1  0
 30 31  1  0
 31 32  1  0
 25 33  1  0
 33 34  2  0
 33 35  1  0
 35 36  1  0
  9 37  1  0
  4 38  1  0
  7  2  1  0
 12  8  1  0
 20 11  1  0
 19 14  1  0
 28 24  1  0
 32 26  1  0
  1 39  1  0
  1 40  1  0
  1 41  1  0
  3 42  1  0
  5 43  1  0
  7 44  1  0
 15 45  1  0
 16 46  1  0
 17 47  1  0
 18 48  1  0
 23 49  1  0
 29 50  1  0
 29 51  1  0
 30 52  1  0
 30 53  1  0
 31 54  1  0
 31 55  1  0
 32 56  1  0
 32 57  1  0
 36 58  1  0
 36 59  1  0
 36 60  1  0
 37 61  1  0
 37 62  1  0
 38 63  1  0
 38 64  1  0
 38 65  1  0
M  END
$$$$
