
     RDKit          3D

 65 70  0  0  0  0  0  0  0  0999 V2000
    6.1980    2.6204   -3.5153 C   0  0  0  0  0  0  0  0  0  0  0  0
    5.8482    2.0703   -2.1641 C   0  0  0  0  0  0  0  0  0  0  0  0
    6.8333    1.9547   -1.1721 C   0  0  0  0  0  0  0  0  0  0  0  0
    6.5031    1.4763    0.1046 C   0  0  0  0  0  0  0  0  0  0  0  0
    5.1810    1.0988    0.3810 C   0  0  0  0  0  0  0  0  0  0  0  0
    4.1824    1.2367   -0.5948 C   0  0  0  0  0  0  0  0  0  0  0  0
    4.5224    1.7240   -1.8657 C   0  0  0  0  0  0  0  0  0  0  0  0
    2.8293    0.8486   -0.3038 N   0  0  0  0  0  0  0  0  0  0  0  0
    1.6859    1.5603   -0.5115 C   0  0  0  0  0  0  0  0  0  0  0  0
    0.5533    0.8199   -0.1321 C   0  0  0  0  0  0  0  0  0  0  0  0
    1.0680   -0.3792    0.3216 C   0  0  0  0  0  0  0  0  0  0  0  0
    2.4255   -0.3279    0.2092 C   0  0  0  0  0  0  0  0  0  0  0  0
    3.2114   -1.3698    0.5793 N   0  0  0  0  0  0  0  0  0  0  0  0
    2.6119   -2.4853    1.0931 C   0  0  0  0  0  0  0  0  0  0  0  0
    3.3811   -3.5832    1.4911 C   0  0  0  0  0  0  0  0  0  0  0  0
    2.7568   -4.7179    2.0202 C   0  0  0  0  0  0  0  0  0  0  0  0
    1.3639   -4.7616    2.1545 C   0  0  0  0  0  0  0  0  0  0  0  0
    0.5809   -3.6711    1.7608 C   0  0  0  0  0  0  0  0  0  0  0  0
    1.1905   -2.5302    1.2297 C   0  0  0  0  0  0  0  0  0  0  0  0
    0.4351   -1.4605    0.8392 N   0  0  0  0  0  0  0  0  0  0  0  0
   -0.8656    1.2336   -0.1363 C   0  0  0  0  0  0  0  0  0  0  0  0
   -1.1576    2.4589   -0.1143 O   0  0  0  0  0  0  0  0  0  0  0  0
   -1.9088    0.2478   -0.1824 N   0  0  0  0  0  0  0  0  0  0  0  0
   -3.2753    0.5272    0.1625 C   0  0  0  0  0  0  0  0  0  0  0  0
   -4.3821   -0.2566   -0.1922 C   0  0  0  0  0  0  0  0  0  0  0  0
   -5.5777    0.2036    0.4076 C   0  0  0  0  0  0  0  0  0  0  0  0
   -5.3828    1.2915    1.2552 C   0  0  0  0  0  0  0  0  0  0  0  0
   -3.7664    1.7365    1.2315 S   0  0  0  0  0  0  0  0  0  0  0  0
   -6.4793    2.0259    1.9647 C   0  0  0  0  0  0  0  0  0  0  0  0
   -7.7481    1.1645    2.0469 C   0  0  0  0  0  0  0  0  0  0  0  0
   -8.0681    0.5239    0.6871 C   0  0  0  0  0  0  0  0  0  0  0  0
   -6.9411   -0.4209    0.2327 C   0  0  0  0  0  0  0  0  0  0  0  0
   -4.3079   -1.4122   -1.1120 C   0  0  0  0  0  0  0  0  0  0  0  0
   -5.1160   -2.3727   -0.9875 O   0  0  0  0  0  0  0  0  0  0  0  0
   -3.3458   -1.4331   -2.1264 O   0  0  0  0  0  0  0  0  0  0  0  0
   -3.2068   -2.5215   -3.0312 C   0  0  0  0  0  0  0  0  0  0  0  0
    1.6667    2.8986   -1.0209 N   0  0  0  0  0  0  0  0  0  0  0  0
    7.5694    1.3047    1.1458 C   0  0  0  0  0  0  0  0  0  0  0  0
    7.2475    2.3713   -3.7809 H   0  0  0  0  0  0  0  0  0  0  0  0
    5.5358    2.1909   -4.2969 H   0  0  0  0  0  0  0  0  0  0  0  0
    6.0789    3.7239   -3.5061 H   0  0  0  0  0  0  0  0  0  0  0  0
    7.8566    2.2340   -1.3943 H   0  0  0  0  0  0  0  0  0  0  0  0
    4.9234    0.7142    1.3604 H   0  0  0  0  0  0  0  0  0  0  0  0
    3.7569    1.8149   -2.6269 H   0  0  0  0  0  0  0  0  0  0  0  0
    4.4594   -3.5595    1.3929 H   0  0  0  0  0  0  0  0  0  0  0  0
    3.3540   -5.5666    2.3278 H   0  0  0  0  0  0  0  0  0  0  0  0
    0.8902   -5.6440    2.5650 H   0  0  0  0  0  0  0  0  0  0  0  0
   -0.4959   -3.7158    1.8683 H   0  0  0  0  0  0  0  0  0  0  0  0
   -1.6590   -0.7199   -0.4797 H   0  0  0  0  0  0  0  0  0  0  0  0
   -6.1466    2.2974    2.9891 H   0  0  0  0  0  0  0  0  0  0  0  0
   -6.7010    2.9603    1.4060 H   0  0  0  0  0  0  0  0  0  0  0  0
   -8.6019    1.7993    2.3675 H   0  0  0  0  0  0  0  0  0  0  0  0
   -7.6088    0.3662    2.8089 H   0  0  0  0  0  0  0  0  0  0  0  0
   -8.2118    1.3234   -0.0729 H   0  0  0  0  0  0  0  0  0  0  0  0
   -9.0173   -0.0489    0.7629 H   0  0  0  0  0  0  0  0  0  0  0  0
   -7.1063   -0.6777   -0.8354 H   0  0  0  0  0  0  0  0  0  0  0  0
   -6.9833   -1.3552    0.8328 H   0  0  0  0  0  0  0  0  0  0  0  0
   -2.3785   -2.3052   -3.7366 H   0  0  0  0  0  0  0  0  0  0  0  0
   -2.9699   -3.4517   -2.4726 H   0  0  0  0  0  0  0  0  0  0  0  0
   -4.1455   -2.6583   -3.6087 H   0  0  0  0  0  0  0  0  0  0  0  0
    0.7787    3.3533   -1.3226 H   0  0  0  0  0  0  0  0  0  0  0  0
    2.5474    3.4507   -1.1076 H   0  0  0  0  0  0  0  0  0  0  0  0
    8.3734    2.0596    1.0124 H   0  0  0  0  0  0  0  0  0  0  0  0
    7.1462    1.4316    2.1650 H   0  0  0  0  0  0  0  0  0  0  0  0
    8.0085    0.2888    1.0601 H   0  0  0  0  0  0  0  0  0  0  0  0
  1  2  1  0
  2  3  2  0
  3  4  1  0
  4  5  2  0
  5  6  1  0
  6  7  2  0
  6  8  1  0
  8  9  1  0
  9 10  2  0
 10 11  1  0
 11 12  2  0
 12 13  1  0
 13 14  2  0
 14 15  1  0
 15 16  2  0
 16 17  1  0
 17 18  2  0
 18 19  1  0
 19 20  2  0
 10 21  1  0
 21 22  2  0
 21 23  1  0
 23 24  1  0
 24 25  2  0
 25 26  1  0
 26 27  2  0
 27 28  1  0
 27 29  1  0
 29 30  1  0
 30 31  1  0
 31 32  1  0
 25 33  1  0
 33 34  2  0
 33 35  1  0
 35 36  1  0
  9 37  1  0
  4 38  1  0
  7  2  1  0
 12  8  1  0
 20 11  1  0
 19 14  1  0
 28 24  1  0
 32 26  1  0
  1 39  1  0
  1 40  1  0
  1 41  1  0
  3 42  1  0
  5 43  1  0
  7 44  1  0
 15 45  1  0
 16 46  1  0
 17 47  1  0
 18 48  1  0
 23 49  1  0
 29 50  1  0
 29 51  1  0
 30 52  1  0
 30 53  1  0
 31 54  1  0
 31 55  1  0
 32 56  1  0
 32 57  1  0
 36 58  1  0
 36 59  1  0
 36 60  1  0
 37 61  1  0
 37 62  1  0
 38 63  1  0
 38 64  1  0
 38 65  1  0
M  END
$$$$
