
     RDKit          3D

 65 70  0  0  0  0  0  0  0  0999 V2000
   -6.5195    3.8262    1.4515 C   0  0  0  0  0  0  0  0  0  0  0  0
   -6.0186    2.7058    0.5888 C   0  0  0  0  0  0  0  0  0  0  0  0
   -6.8594    2.1237   -0.3714 C   0  0  0  0  0  0  0  0  0  0  0  0
   -6.3891    1.0891   -1.1937 C   0  0  0  0  0  0  0  0  0  0  0  0
   -5.0548    0.6713   -1.0843 C   0  0  0  0  0  0  0  0  0  0  0  0
   -4.1968    1.2663   -0.1473 C   0  0  0  0  0  0  0  0  0  0  0  0
   -4.6864    2.2794    0.6907 C   0  0  0  0  0  0  0  0  0  0  0  0
   -2.8355    0.8198   -0.0286 N   0  0  0  0  0  0  0  0  0  0  0  0
   -1.7007    1.5740    0.0012 C   0  0  0  0  0  0  0  0  0  0  0  0
   -0.5624    0.7659    0.1627 C   0  0  0  0  0  0  0  0  0  0  0  0
   -1.0633   -0.5195    0.2274 C   0  0  0  0  0  0  0  0  0  0  0  0
   -2.4195   -0.4525    0.1076 C   0  0  0  0  0  0  0  0  0  0  0  0
   -3.1974   -1.5613    0.1839 N   0  0  0  0  0  0  0  0  0  0  0  0
   -2.5887   -2.7704    0.3717 C   0  0  0  0  0  0  0  0  0  0  0  0
   -3.3486   -3.9419    0.4462 C   0  0  0  0  0  0  0  0  0  0  0  0
   -2.7150   -5.1736    0.6434 C   0  0  0  0  0  0  0  0  0  0  0  0
   -1.3222   -5.2411    0.7683 C   0  0  0  0  0  0  0  0  0  0  0  0
   -0.5486   -4.0775    0.6976 C   0  0  0  0  0  0  0  0  0  0  0  0
   -1.1674   -2.8394    0.4993 C   0  0  0  0  0  0  0  0  0  0  0  0
   -0.4219   -1.6961    0.4324 N   0  0  0  0  0  0  0  0  0  0  0  0
    0.8527    1.1755    0.2775 C   0  0  0  0  0  0  0  0  0  0  0  0
    1.1343    2.3394    0.6693 O   0  0  0  0  0  0  0  0  0  0  0  0
    1.9035    0.2600   -0.0685 N   0  0  0  0  0  0  0  0  0  0  0  0
    3.2718    0.4384    0.3319 C   0  0  0  0  0  0  0  0  0  0  0  0
    4.3807   -0.1800   -0.2628 C   0  0  0  0  0  0  0  0  0  0  0  0
    5.5787    0.0681    0.4517 C   0  0  0  0  0  0  0  0  0  0  0  0
    5.3929    0.9068    1.5494 C   0  0  0  0  0  0  0  0  0  0  0  0
    3.7665    1.2809    1.7059 S   0  0  0  0  0  0  0  0  0  0  0  0
    6.4771    1.3301    2.4917 C   0  0  0  0  0  0  0  0  0  0  0  0
    7.8515    1.2050    1.8212 C   0  0  0  0  0  0  0  0  0  0  0  0
    8.0055   -0.1643    1.1432 C   0  0  0  0  0  0  0  0  0  0  0  0
    6.9632   -0.3676    0.0277 C   0  0  0  0  0  0  0  0  0  0  0  0
    4.3015   -0.9346   -1.5340 C   0  0  0  0  0  0  0  0  0  0  0  0
    5.1202   -1.8617   -1.7776 O   0  0  0  0  0  0  0  0  0  0  0  0
    3.3184   -0.6072   -2.4732 O   0  0  0  0  0  0  0  0  0  0  0  0
    3.1715   -1.3009   -3.7061 C   0  0  0  0  0  0  0  0  0  0  0  0
   -1.6826    2.9872   -0.2334 N   0  0  0  0  0  0  0  0  0  0  0  0
   -7.2843    0.4871   -2.2361 C   0  0  0  0  0  0  0  0  0  0  0  0
   -7.6093    3.7201    1.6388 H   0  0  0  0  0  0  0  0  0  0  0  0
   -6.0014    3.8259    2.4342 H   0  0  0  0  0  0  0  0  0  0  0  0
   -6.3318    4.7950    0.9434 H   0  0  0  0  0  0  0  0  0  0  0  0
   -7.8802    2.4725   -0.4755 H   0  0  0  0  0  0  0  0  0  0  0  0
   -4.6774   -0.1059   -1.7380 H   0  0  0  0  0  0  0  0  0  0  0  0
   -4.0309    2.7289    1.4270 H   0  0  0  0  0  0  0  0  0  0  0  0
   -4.4267   -3.9011    0.3520 H   0  0  0  0  0  0  0  0  0  0  0  0
   -3.3049   -6.0793    0.7002 H   0  0  0  0  0  0  0  0  0  0  0  0
   -0.8413   -6.1986    0.9212 H   0  0  0  0  0  0  0  0  0  0  0  0
    0.5280   -4.1409    0.7964 H   0  0  0  0  0  0  0  0  0  0  0  0
    1.6590   -0.5787   -0.6385 H   0  0  0  0  0  0  0  0  0  0  0  0
    6.3117    2.3826    2.8059 H   0  0  0  0  0  0  0  0  0  0  0  0
    6.4408    0.6817    3.3933 H   0  0  0  0  0  0  0  0  0  0  0  0
    8.6462    1.3306    2.5877 H   0  0  0  0  0  0  0  0  0  0  0  0
    7.9735    2.0104    1.0636 H   0  0  0  0  0  0  0  0  0  0  0  0
    7.8929   -0.9661    1.9063 H   0  0  0  0  0  0  0  0  0  0  0  0
    9.0256   -0.2490    0.7104 H   0  0  0  0  0  0  0  0  0  0  0  0
    6.9635   -1.4438   -0.2389 H   0  0  0  0  0  0  0  0  0  0  0  0
    7.2618    0.2204   -0.8666 H   0  0  0  0  0  0  0  0  0  0  0  0
    4.0991   -1.2051   -4.3093 H   0  0  0  0  0  0  0  0  0  0  0  0
    2.9563   -2.3736   -3.5149 H   0  0  0  0  0  0  0  0  0  0  0  0
    2.3262   -0.8603   -4.2733 H   0  0  0  0  0  0  0  0  0  0  0  0
   -0.7885    3.5206   -0.2775 H   0  0  0  0  0  0  0  0  0  0  0  0
   -2.5591    3.5037   -0.4629 H   0  0  0  0  0  0  0  0  0  0  0  0
   -7.0064   -0.5714   -2.4273 H   0  0  0  0  0  0  0  0  0  0  0  0
   -8.3438    0.5082   -1.9027 H   0  0  0  0  0  0  0  0  0  0  0  0
   -7.1901    1.0626   -3.1805 H   0  0  0  0  0  0  0  0  0  0  0  0
  1  2  1  0
  2  3  2  0
  3  4  1  0
  4  5  2  0
  5  6  1  0
  6  7  2  0
  6  8  1  0
  8  9  1  0
  9 10  2  0
 10 11  1  0
 11 12  2  0
 12 13  1  0
 13 14  2  0
 14 15  1  0
 15 16  2  0
 16 17  1  0
 17 18  2  0
 18 19  1  0
 19 20  2  0
 10 21  1  0
 21 22  2  0
 21 23  1  0
 23 24  1  0
 24 25  2  0
 25 26  1  0
 26 27  2  0
 27 28  1  0
 27 29  1  0
 29 30  1  0
 30 31  1  0
 31 32  1  0
 25 33  1  0
 33 34  2  0
 33 35  1  0
 35 36  1  0
  9 37  1  0
  4 38  1  0
  7  2  1  0
 12  8  1  0
 20 11  1  0
 19 14  1  0
 28 24  1  0
 32 26  1  0
  1 39  1  0
  1 40  1  0
  1 41  1  0
  3 42  1  0
  5 43  1  0
  7 44  1  0
 15 45  1  0
 16 46  1  0
 17 47  1  0
 18 48  1  0
 23 49  1  0
 29 50  1  0
 29 51  1  0
 30 52  1  0
 30 53  1  0
 31 54  1  0
 31 55  1  0
 32 56  1  0
 32 57  1  0
 36 58  1  0
 36 59  1  0
 36 60  1  0
 37 61  1  0
 37 62  1  0
 38 63  1  0
 38 64  1  0
 38 65  1  0
M  END
$$$$
