
     RDKit          3D

 71 74  0  0  0  0  0  0  0  0999 V2000
   -5.6388    0.2022    1.5545 C   0  0  0  0  0  0  0  0  0  0  0  0
   -4.4096   -0.2815    0.7558 C   0  0  1  0  0  0  0  0  0  0  0  0
   -4.6090    0.0543   -0.7530 C   0  0  0  0  0  0  0  0  0  0  0  0
   -4.2752    1.4868   -1.1799 C   0  0  0  0  0  0  0  0  0  0  0  0
   -4.5841    1.6820   -2.6309 C   0  0  0  0  0  0  0  0  0  0  0  0
   -5.7148    2.1063   -2.9873 O   0  0  0  0  0  0  0  0  0  0  0  0
   -3.6398    1.3472   -3.5933 O   0  0  0  0  0  0  0  0  0  0  0  0
   -3.0831    0.1130    1.5123 C   0  0  2  0  0  0  0  0  0  0  0  0
   -2.9164    1.6009    1.9114 C   0  0  0  0  0  0  0  0  0  0  0  0
   -1.4121    1.8387    2.0050 C   0  0  0  0  0  0  0  0  0  0  0  0
   -0.8643    0.9090    0.9407 C   0  0  2  0  0  0  0  0  0  0  0  0
   -1.6557   -0.4134    1.0506 C   0  0  2  0  0  0  0  0  0  0  0  0
   -1.5047   -1.0924   -0.3436 C   0  0  1  0  0  0  0  0  0  0  0  0
   -0.0175   -1.1736   -0.8607 C   0  0  0  0  0  0  0  0  0  0  0  0
    1.0816   -0.5331    0.0561 C   0  0  2  0  0  0  0  0  0  0  0  0
    0.6661    0.8053    0.7204 C   0  0  2  0  0  0  0  0  0  0  0  0
    1.5491    1.0547    1.9754 C   0  0  0  0  0  0  0  0  0  0  0  0
    3.0384    0.6616    1.7468 C   0  0  0  0  0  0  0  0  0  0  0  0
    3.3801    0.6239    0.2420 C   0  0  2  0  0  0  0  0  0  0  0  0
    2.5530   -0.4622   -0.5384 C   0  0  2  0  0  0  0  0  0  0  0  0
    2.6025   -0.0630   -2.0463 C   0  0  0  0  0  0  0  0  0  0  0  0
    3.8814    0.7116   -2.4843 C   0  0  0  0  0  0  0  0  0  0  0  0
    5.1487    0.5081   -1.6112 C   0  0  1  0  0  0  0  0  0  0  0  0
    4.8802    0.5311   -0.0746 C   0  0  0  0  0  0  0  0  0  0  0  0
    5.8062   -0.6977   -2.0056 O   0  0  0  0  0  0  0  0  0  0  0  0
    7.1296   -0.9999   -1.6692 C   0  0  0  0  0  0  0  0  0  0  0  0
    7.8324   -0.1954   -1.0009 O   0  0  0  0  0  0  0  0  0  0  0  0
    3.1756   -1.8850   -0.3783 C   0  0  0  0  0  0  0  0  0  0  0  0
   -2.1169   -2.3850   -0.3298 O   0  0  0  0  0  0  0  0  0  0  0  0
   -2.4316   -3.1012   -1.4889 C   0  0  0  0  0  0  0  0  0  0  0  0
   -2.2041   -2.6233   -2.6324 O   0  0  0  0  0  0  0  0  0  0  0  0
   -1.1414   -1.3906    2.1649 C   0  0  0  0  0  0  0  0  0  0  0  0
   -6.5726   -0.2313    1.1367 H   0  0  0  0  0  0  0  0  0  0  0  0
   -5.7189    1.3089    1.5256 H   0  0  0  0  0  0  0  0  0  0  0  0
   -5.5740   -0.1216    2.6151 H   0  0  0  0  0  0  0  0  0  0  0  0
   -4.4520   -1.3928    0.8064 H   0  0  0  0  0  0  0  0  0  0  0  0
   -5.6758   -0.1307   -1.0116 H   0  0  0  0  0  0  0  0  0  0  0  0
   -4.0782   -0.6755   -1.3913 H   0  0  0  0  0  0  0  0  0  0  0  0
   -4.8696    2.2114   -0.5839 H   0  0  0  0  0  0  0  0  0  0  0  0
   -3.1989    1.6905   -1.0335 H   0  0  0  0  0  0  0  0  0  0  0  0
   -3.2746   -0.3410    2.5114 H   0  0  0  0  0  0  0  0  0  0  0  0
   -3.3459    2.2866    1.1599 H   0  0  0  0  0  0  0  0  0  0  0  0
   -3.4036    1.8272    2.8862 H   0  0  0  0  0  0  0  0  0  0  0  0
   -1.0433    1.5544    3.0138 H   0  0  0  0  0  0  0  0  0  0  0  0
   -1.1552    2.9001    1.7957 H   0  0  0  0  0  0  0  0  0  0  0  0
   -1.2110    1.3936   -0.0048 H   0  0  0  0  0  0  0  0  0  0  0  0
   -2.0214   -0.4556   -1.0818 H   0  0  0  0  0  0  0  0  0  0  0  0
    0.2471   -2.2394   -1.0233 H   0  0  0  0  0  0  0  0  0  0  0  0
    0.0094   -0.7018   -1.8631 H   0  0  0  0  0  0  0  0  0  0  0  0
    1.1823   -1.2325    0.9013 H   0  0  0  0  0  0  0  0  0  0  0  0
    0.9058    1.6210    0.0005 H   0  0  0  0  0  0  0  0  0  0  0  0
    1.1628    0.4787    2.8413 H   0  0  0  0  0  0  0  0  0  0  0  0
    1.4940    2.1332    2.2399 H   0  0  0  0  0  0  0  0  0  0  0  0
    3.2387   -0.3317    2.2016 H   0  0  0  0  0  0  0  0  0  0  0  0
    3.6908    1.3985    2.2639 H   0  0  0  0  0  0  0  0  0  0  0  0
    3.0923    1.6340   -0.1301 H   0  0  0  0  0  0  0  0  0  0  0  0
    1.7469    0.6076   -2.2760 H   0  0  0  0  0  0  0  0  0  0  0  0
    2.4781   -0.9625   -2.6890 H   0  0  0  0  0  0  0  0  0  0  0  0
    4.1175    0.4588   -3.5409 H   0  0  0  0  0  0  0  0  0  0  0  0
    3.6442    1.7991   -2.4785 H   0  0  0  0  0  0  0  0  0  0  0  0
    5.8296    1.3559   -1.8530 H   0  0  0  0  0  0  0  0  0  0  0  0
    5.3932    1.4132    0.3684 H   0  0  0  0  0  0  0  0  0  0  0  0
    5.3158   -0.3638    0.4195 H   0  0  0  0  0  0  0  0  0  0  0  0
    7.5567   -1.9397   -1.9906 H   0  0  0  0  0  0  0  0  0  0  0  0
    3.3362   -2.1355    0.6910 H   0  0  0  0  0  0  0  0  0  0  0  0
    2.5075   -2.6575   -0.8115 H   0  0  0  0  0  0  0  0  0  0  0  0
    4.1407   -1.9971   -0.8985 H   0  0  0  0  0  0  0  0  0  0  0  0
   -2.8820   -4.0800   -1.4009 H   0  0  0  0  0  0  0  0  0  0  0  0
   -0.3994   -2.1307    1.8232 H   0  0  0  0  0  0  0  0  0  0  0  0
   -1.9644   -2.0501    2.5152 H   0  0  0  0  0  0  0  0  0  0  0  0
   -0.7542   -0.8416    3.0463 H   0  0  0  0  0  0  0  0  0  0  0  0
  1  2  1  0
  2  3  1  0
  3  4  1  0
  4  5  1  0
  5  6  2  0
  5  7  1  0
  2  8  1  0
  8  9  1  0
  9 10  1  0
 10 11  1  0
 11 12  1  0
 12 13  1  0
 13 14  1  0
 14 15  1  0
 15 16  1  0
 16 17  1  0
 17 18  1  0
 18 19  1  0
 19 20  1  0
 20 21  1  0
 21 22  1  0
 22 23  1  0
 23 24  1  0
 23 25  1  0
 25 26  1  0
 26 27  2  0
 20 28  1  6
 13 29  1  0
 29 30  1  0
 30 31  2  0
 12 32  1  1
 12  8  1  0
 16 11  1  0
 20 15  1  0
 24 19  1  0
  1 33  1  0
  1 34  1  0
  1 35  1  0
  2 36  1  6
  3 37  1  0
  3 38  1  0
  4 39  1  0
  4 40  1  0
  8 41  1  1
  9 42  1  0
  9 43  1  0
 10 44  1  0
 10 45  1  0
 11 46  1  6
 13 47  1  6
 14 48  1  0
 14 49  1  0
 15 50  1  1
 16 51  1  6
 17 52  1  0
 17 53  1  0
 18 54  1  0
 18 55  1  0
 19 56  1  6
 21 57  1  0
 21 58  1  0
 22 59  1  0
 22 60  1  0
 23 61  1  1
 24 62  1  0
 24 63  1  0
 26 64  1  0
 28 65  1  0
 28 66  1  0
 28 67  1  0
 30 68  1  0
 32 69  1  0
 32 70  1  0
 32 71  1  0
M  CHG  1   7  -1
M  END
$$$$
