
     RDKit          3D

 71 74  0  0  0  0  0  0  0  0999 V2000
   -2.8957    3.0036   -0.3857 C   0  0  0  0  0  0  0  0  0  0  0  0
   -3.8163    1.8366    0.0253 C   0  0  1  0  0  0  0  0  0  0  0  0
   -4.5596    1.2572   -1.2147 C   0  0  0  0  0  0  0  0  0  0  0  0
   -5.4689    0.0600   -0.9059 C   0  0  0  0  0  0  0  0  0  0  0  0
   -6.3057   -0.2846   -2.0975 C   0  0  0  0  0  0  0  0  0  0  0  0
   -7.4486    0.2248   -2.2382 O   0  0  0  0  0  0  0  0  0  0  0  0
   -5.8034   -1.1302   -3.0785 O   0  0  0  0  0  0  0  0  0  0  0  0
   -3.1793    0.7949    1.0265 C   0  0  2  0  0  0  0  0  0  0  0  0
   -2.8539    1.4644    2.3965 C   0  0  0  0  0  0  0  0  0  0  0  0
   -1.3419    1.3542    2.6309 C   0  0  0  0  0  0  0  0  0  0  0  0
   -0.7844    0.8562    1.3064 C   0  0  2  0  0  0  0  0  0  0  0  0
   -1.8744   -0.0222    0.6727 C   0  0  2  0  0  0  0  0  0  0  0  0
   -1.5132   -0.2475   -0.8474 C   0  0  1  0  0  0  0  0  0  0  0  0
    0.0243   -0.2255   -1.1649 C   0  0  0  0  0  0  0  0  0  0  0  0
    0.9057   -0.6292    0.0365 C   0  0  2  0  0  0  0  0  0  0  0  0
    0.6698    0.3016    1.2578 C   0  0  2  0  0  0  0  0  0  0  0  0
    1.1986   -0.4007    2.5389 C   0  0  0  0  0  0  0  0  0  0  0  0
    2.5780   -1.0955    2.3168 C   0  0  0  0  0  0  0  0  0  0  0  0
    3.2737   -0.5640    1.0442 C   0  0  2  0  0  0  0  0  0  0  0  0
    2.4469   -0.8708   -0.2554 C   0  0  2  0  0  0  0  0  0  0  0  0
    3.0263    0.0567   -1.3594 C   0  0  0  0  0  0  0  0  0  0  0  0
    4.5521   -0.1336   -1.5584 C   0  0  0  0  0  0  0  0  0  0  0  0
    5.3748   -0.0862   -0.2434 C   0  0  1  0  0  0  0  0  0  0  0  0
    4.7544   -0.9341    0.8897 C   0  0  0  0  0  0  0  0  0  0  0  0
    6.7064   -0.5449   -0.4806 O   0  0  0  0  0  0  0  0  0  0  0  0
    7.6704    0.2009   -1.1665 C   0  0  0  0  0  0  0  0  0  0  0  0
    7.4228    1.3647   -1.5812 O   0  0  0  0  0  0  0  0  0  0  0  0
    2.5992   -2.3580   -0.7120 C   0  0  0  0  0  0  0  0  0  0  0  0
   -2.1094   -1.4567   -1.3285 O   0  0  0  0  0  0  0  0  0  0  0  0
   -2.3493   -1.7205   -2.6810 C   0  0  0  0  0  0  0  0  0  0  0  0
   -2.0642   -0.8760   -3.5716 O   0  0  0  0  0  0  0  0  0  0  0  0
   -2.0291   -1.3981    1.4139 C   0  0  0  0  0  0  0  0  0  0  0  0
   -3.4932    3.7826   -0.9059 H   0  0  0  0  0  0  0  0  0  0  0  0
   -2.4346    3.4864    0.4991 H   0  0  0  0  0  0  0  0  0  0  0  0
   -2.0908    2.6924   -1.0764 H   0  0  0  0  0  0  0  0  0  0  0  0
   -4.6313    2.3205    0.6119 H   0  0  0  0  0  0  0  0  0  0  0  0
   -5.1971    2.0720   -1.6269 H   0  0  0  0  0  0  0  0  0  0  0  0
   -3.8728    0.9870   -2.0372 H   0  0  0  0  0  0  0  0  0  0  0  0
   -4.8528   -0.8275   -0.6492 H   0  0  0  0  0  0  0  0  0  0  0  0
   -6.1320    0.2969   -0.0453 H   0  0  0  0  0  0  0  0  0  0  0  0
   -4.0043    0.0858    1.2506 H   0  0  0  0  0  0  0  0  0  0  0  0
   -3.3890    0.9356    3.2167 H   0  0  0  0  0  0  0  0  0  0  0  0
   -3.1713    2.5276    2.4460 H   0  0  0  0  0  0  0  0  0  0  0  0
   -1.1417    0.6348    3.4525 H   0  0  0  0  0  0  0  0  0  0  0  0
   -0.9028    2.3393    2.9019 H   0  0  0  0  0  0  0  0  0  0  0  0
   -0.7376    1.7714    0.6718 H   0  0  0  0  0  0  0  0  0  0  0  0
   -1.9126    0.5828   -1.4339 H   0  0  0  0  0  0  0  0  0  0  0  0
    0.3112    0.8029   -1.4777 H   0  0  0  0  0  0  0  0  0  0  0  0
    0.2368   -0.8951   -2.0245 H   0  0  0  0  0  0  0  0  0  0  0  0
    0.5235   -1.6181    0.3280 H   0  0  0  0  0  0  0  0  0  0  0  0
    1.2914    1.2130    1.1133 H   0  0  0  0  0  0  0  0  0  0  0  0
    1.3054    0.3603    3.3423 H   0  0  0  0  0  0  0  0  0  0  0  0
    0.4671   -1.1591    2.8894 H   0  0  0  0  0  0  0  0  0  0  0  0
    3.2228   -0.9092    3.2031 H   0  0  0  0  0  0  0  0  0  0  0  0
    2.4384   -2.1942    2.2396 H   0  0  0  0  0  0  0  0  0  0  0  0
    3.3128    0.5388    1.1951 H   0  0  0  0  0  0  0  0  0  0  0  0
    2.8297    1.1191   -1.0944 H   0  0  0  0  0  0  0  0  0  0  0  0
    2.5257   -0.1381   -2.3320 H   0  0  0  0  0  0  0  0  0  0  0  0
    4.9116    0.6711   -2.2346 H   0  0  0  0  0  0  0  0  0  0  0  0
    4.7514   -1.0871   -2.0900 H   0  0  0  0  0  0  0  0  0  0  0  0
    5.4130    0.9700    0.1088 H   0  0  0  0  0  0  0  0  0  0  0  0
    4.8920   -2.0191    0.7068 H   0  0  0  0  0  0  0  0  0  0  0  0
    5.2917   -0.7001    1.8349 H   0  0  0  0  0  0  0  0  0  0  0  0
    8.6486   -0.2271   -1.3366 H   0  0  0  0  0  0  0  0  0  0  0  0
    3.6295   -2.6371   -0.9977 H   0  0  0  0  0  0  0  0  0  0  0  0
    2.2879   -3.0588    0.0902 H   0  0  0  0  0  0  0  0  0  0  0  0
    1.9596   -2.5530   -1.5988 H   0  0  0  0  0  0  0  0  0  0  0  0
   -2.7930   -2.6644   -2.9655 H   0  0  0  0  0  0  0  0  0  0  0  0
   -2.1639   -1.2646    2.5070 H   0  0  0  0  0  0  0  0  0  0  0  0
   -1.2023   -2.1070    1.2812 H   0  0  0  0  0  0  0  0  0  0  0  0
   -2.9333   -1.9280    1.0444 H   0  0  0  0  0  0  0  0  0  0  0  0
  1  2  1  0
  2  3  1  0
  3  4  1  0
  4  5  1  0
  5  6  2  0
  5  7  1  0
  2  8  1  0
  8  9  1  0
  9 10  1  0
 10 11  1  0
 11 12  1  0
 12 13  1  0
 13 14  1  0
 14 15  1  0
 15 16  1  0
 16 17  1  0
 17 18  1  0
 18 19  1  0
 19 20  1  0
 20 21  1  0
 21 22  1  0
 22 23  1  0
 23 24  1  0
 23 25  1  0
 25 26  1  0
 26 27  2  0
 20 28  1  6
 13 29  1  0
 29 30  1  0
 30 31  2  0
 12 32  1  1
 12  8  1  0
 16 11  1  0
 20 15  1  0
 24 19  1  0
  1 33  1  0
  1 34  1  0
  1 35  1  0
  2 36  1  1
  3 37  1  0
  3 38  1  0
  4 39  1  0
  4 40  1  0
  8 41  1  1
  9 42  1  0
  9 43  1  0
 10 44  1  0
 10 45  1  0
 11 46  1  6
 13 47  1  6
 14 48  1  0
 14 49  1  0
 15 50  1  1
 16 51  1  6
 17 52  1  0
 17 53  1  0
 18 54  1  0
 18 55  1  0
 19 56  1  1
 21 57  1  0
 21 58  1  0
 22 59  1  0
 22 60  1  0
 23 61  1  1
 24 62  1  0
 24 63  1  0
 26 64  1  0
 28 65  1  0
 28 66  1  0
 28 67  1  0
 30 68  1  0
 32 69  1  0
 32 70  1  0
 32 71  1  0
M  CHG  1   7  -1
M  END
$$$$
