
     RDKit          3D

 71 74  0  0  0  0  0  0  0  0999 V2000
   -4.4249   -1.6582   -0.8614 C   0  0  0  0  0  0  0  0  0  0  0  0
   -4.1176   -0.1699   -0.5659 C   0  0  1  0  0  0  0  0  0  0  0  0
   -5.4755    0.5880   -0.4081 C   0  0  0  0  0  0  0  0  0  0  0  0
   -6.3932    0.5080   -1.6423 C   0  0  0  0  0  0  0  0  0  0  0  0
   -5.7672    1.1469   -2.8439 C   0  0  0  0  0  0  0  0  0  0  0  0
   -5.2709    0.4341   -3.7555 O   0  0  0  0  0  0  0  0  0  0  0  0
   -5.7022    2.5311   -2.9405 O   0  0  0  0  0  0  0  0  0  0  0  0
   -3.2026   -0.0435    0.7047 C   0  0  2  0  0  0  0  0  0  0  0  0
   -3.1296    1.4085    1.2748 C   0  0  0  0  0  0  0  0  0  0  0  0
   -1.6832    1.6765    1.6680 C   0  0  0  0  0  0  0  0  0  0  0  0
   -0.9321    0.8174    0.6808 C   0  0  2  0  0  0  0  0  0  0  0  0
   -1.6832   -0.5253    0.5991 C   0  0  2  0  0  0  0  0  0  0  0  0
   -1.1776   -1.2685   -0.7206 C   0  0  1  0  0  0  0  0  0  0  0  0
    0.2624   -0.8479   -1.1924 C   0  0  0  0  0  0  0  0  0  0  0  0
    1.1787   -0.4655   -0.0095 C   0  0  2  0  0  0  0  0  0  0  0  0
    0.6159    0.7593    0.7567 C   0  0  2  0  0  0  0  0  0  0  0  0
    1.2603    0.8250    2.1676 C   0  0  0  0  0  0  0  0  0  0  0  0
    2.7940    0.5340    2.1335 C   0  0  0  0  0  0  0  0  0  0  0  0
    3.3623    0.6918    0.7043 C   0  0  2  0  0  0  0  0  0  0  0  0
    2.7309   -0.3346   -0.3040 C   0  0  2  0  0  0  0  0  0  0  0  0
    3.0529    0.2069   -1.7242 C   0  0  0  0  0  0  0  0  0  0  0  0
    4.5730    0.4130   -1.9500 C   0  0  0  0  0  0  0  0  0  0  0  0
    5.2778    1.2190   -0.8316 C   0  0  1  0  0  0  0  0  0  0  0  0
    4.8912    0.7475    0.5929 C   0  0  0  0  0  0  0  0  0  0  0  0
    6.6908    1.1180   -1.0139 O   0  0  0  0  0  0  0  0  0  0  0  0
    7.6102    1.9970   -0.4324 C   0  0  0  0  0  0  0  0  0  0  0  0
    7.2282    2.9772    0.2612 O   0  0  0  0  0  0  0  0  0  0  0  0
    3.3464   -1.7630   -0.1521 C   0  0  0  0  0  0  0  0  0  0  0  0
   -1.2091   -2.6894   -0.5366 O   0  0  0  0  0  0  0  0  0  0  0  0
   -1.2296   -3.6112   -1.5892 C   0  0  0  0  0  0  0  0  0  0  0  0
   -1.2643   -3.2305   -2.7899 O   0  0  0  0  0  0  0  0  0  0  0  0
   -1.4387   -1.4191    1.8622 C   0  0  0  0  0  0  0  0  0  0  0  0
   -3.6087   -2.3334   -0.5618 H   0  0  0  0  0  0  0  0  0  0  0  0
   -4.6096   -1.8028   -1.9466 H   0  0  0  0  0  0  0  0  0  0  0  0
   -5.3176   -2.0029   -0.2963 H   0  0  0  0  0  0  0  0  0  0  0  0
   -3.5821    0.2857   -1.4248 H   0  0  0  0  0  0  0  0  0  0  0  0
   -6.0244    0.1770    0.4675 H   0  0  0  0  0  0  0  0  0  0  0  0
   -5.3235    1.6651   -0.2046 H   0  0  0  0  0  0  0  0  0  0  0  0
   -7.3390    1.0453   -1.4155 H   0  0  0  0  0  0  0  0  0  0  0  0
   -6.6713   -0.5436   -1.8654 H   0  0  0  0  0  0  0  0  0  0  0  0
   -3.7334   -0.6365    1.4859 H   0  0  0  0  0  0  0  0  0  0  0  0
   -3.8102    1.5473    2.1429 H   0  0  0  0  0  0  0  0  0  0  0  0
   -3.3750    2.1597    0.4952 H   0  0  0  0  0  0  0  0  0  0  0  0
   -1.4938    1.3663    2.7168 H   0  0  0  0  0  0  0  0  0  0  0  0
   -1.4214    2.7513    1.5518 H   0  0  0  0  0  0  0  0  0  0  0  0
   -1.1268    1.3159   -0.3045 H   0  0  0  0  0  0  0  0  0  0  0  0
   -1.8414   -1.0137   -1.5667 H   0  0  0  0  0  0  0  0  0  0  0  0
    0.1841    0.0202   -1.8833 H   0  0  0  0  0  0  0  0  0  0  0  0
    0.7244   -1.6753   -1.7701 H   0  0  0  0  0  0  0  0  0  0  0  0
    1.0967   -1.3209    0.6797 H   0  0  0  0  0  0  0  0  0  0  0  0
    0.9369    1.6769    0.2154 H   0  0  0  0  0  0  0  0  0  0  0  0
    1.0936    1.8415    2.5857 H   0  0  0  0  0  0  0  0  0  0  0  0
    0.7705    0.1011    2.8513 H   0  0  0  0  0  0  0  0  0  0  0  0
    2.9905   -0.4934    2.5056 H   0  0  0  0  0  0  0  0  0  0  0  0
    3.3099    1.2369    2.8233 H   0  0  0  0  0  0  0  0  0  0  0  0
    3.0610    1.7216    0.4057 H   0  0  0  0  0  0  0  0  0  0  0  0
    2.5318    1.1771   -1.8807 H   0  0  0  0  0  0  0  0  0  0  0  0
    2.6811   -0.4949   -2.5010 H   0  0  0  0  0  0  0  0  0  0  0  0
    4.7122    0.9515   -2.9124 H   0  0  0  0  0  0  0  0  0  0  0  0
    5.0747   -0.5685   -2.0785 H   0  0  0  0  0  0  0  0  0  0  0  0
    4.9723    2.2837   -0.9508 H   0  0  0  0  0  0  0  0  0  0  0  0
    5.2800    1.4827    1.3300 H   0  0  0  0  0  0  0  0  0  0  0  0
    5.3600   -0.2268    0.8381 H   0  0  0  0  0  0  0  0  0  0  0  0
    8.6679    1.8362   -0.5885 H   0  0  0  0  0  0  0  0  0  0  0  0
    4.4253   -1.8146   -0.3848 H   0  0  0  0  0  0  0  0  0  0  0  0
    2.8378   -2.4730   -0.8383 H   0  0  0  0  0  0  0  0  0  0  0  0
    3.2235   -2.1453    0.8825 H   0  0  0  0  0  0  0  0  0  0  0  0
   -1.2234   -4.6690   -1.3666 H   0  0  0  0  0  0  0  0  0  0  0  0
   -2.1096   -2.3045    1.8271 H   0  0  0  0  0  0  0  0  0  0  0  0
   -0.4197   -1.8164    1.9677 H   0  0  0  0  0  0  0  0  0  0  0  0
   -1.6766   -0.8800    2.8017 H   0  0  0  0  0  0  0  0  0  0  0  0
  1  2  1  0
  2  3  1  0
  3  4  1  0
  4  5  1  0
  5  6  2  0
  5  7  1  0
  2  8  1  0
  8  9  1  0
  9 10  1  0
 10 11  1  0
 11 12  1  0
 12 13  1  0
 13 14  1  0
 14 15  1  0
 15 16  1  0
 16 17  1  0
 17 18  1  0
 18 19  1  0
 19 20  1  0
 20 21  1  0
 21 22  1  0
 22 23  1  0
 23 24  1  0
 23 25  1  0
 25 26  1  0
 26 27  2  0
 20 28  1  6
 13 29  1  0
 29 30  1  0
 30 31  2  0
 12 32  1  1
 12  8  1  0
 16 11  1  0
 20 15  1  0
 24 19  1  0
  1 33  1  0
  1 34  1  0
  1 35  1  0
  2 36  1  6
  3 37  1  0
  3 38  1  0
  4 39  1  0
  4 40  1  0
  8 41  1  1
  9 42  1  0
  9 43  1  0
 10 44  1  0
 10 45  1  0
 11 46  1  6
 13 47  1  6
 14 48  1  0
 14 49  1  0
 15 50  1  1
 16 51  1  6
 17 52  1  0
 17 53  1  0
 18 54  1  0
 18 55  1  0
 19 56  1  6
 21 57  1  0
 21 58  1  0
 22 59  1  0
 22 60  1  0
 23 61  1  1
 24 62  1  0
 24 63  1  0
 26 64  1  0
 28 65  1  0
 28 66  1  0
 28 67  1  0
 30 68  1  0
 32 69  1  0
 32 70  1  0
 32 71  1  0
M  CHG  1   7  -1
M  END
$$$$
