
     RDKit          3D

 71 74  0  0  0  0  0  0  0  0999 V2000
    4.3202    1.5928   -0.8658 C   0  0  0  0  0  0  0  0  0  0  0  0
    3.9050    0.2260   -1.4729 C   0  0  1  0  0  0  0  0  0  0  0  0
    5.1683   -0.4740   -2.0672 C   0  0  0  0  0  0  0  0  0  0  0  0
    6.2955   -0.7888   -1.0549 C   0  0  0  0  0  0  0  0  0  0  0  0
    6.1987   -2.1727   -0.4914 C   0  0  0  0  0  0  0  0  0  0  0  0
    6.3459   -3.1741   -1.2408 O   0  0  0  0  0  0  0  0  0  0  0  0
    5.9660   -2.3590    0.8655 O   0  0  0  0  0  0  0  0  0  0  0  0
    3.1186   -0.6702   -0.4507 C   0  0  2  0  0  0  0  0  0  0  0  0
    2.8417   -2.1061   -0.9928 C   0  0  0  0  0  0  0  0  0  0  0  0
    1.4300   -2.4915   -0.5727 C   0  0  0  0  0  0  0  0  0  0  0  0
    0.7342   -1.1538   -0.5377 C   0  0  2  0  0  0  0  0  0  0  0  0
    1.7165   -0.1595    0.1106 C   0  0  2  0  0  0  0  0  0  0  0  0
    1.2085    1.2929   -0.2751 C   0  0  1  0  0  0  0  0  0  0  0  0
   -0.3492    1.4136   -0.4758 C   0  0  0  0  0  0  0  0  0  0  0  0
   -1.1555    0.3581    0.3191 C   0  0  2  0  0  0  0  0  0  0  0  0
   -0.7430   -1.0856   -0.0684 C   0  0  2  0  0  0  0  0  0  0  0  0
   -1.1638   -2.0617    1.0625 C   0  0  0  0  0  0  0  0  0  0  0  0
   -2.5695   -1.7225    1.6442 C   0  0  0  0  0  0  0  0  0  0  0  0
   -3.3941   -0.8656    0.6562 C   0  0  2  0  0  0  0  0  0  0  0  0
   -2.7306    0.5303    0.3687 C   0  0  2  0  0  0  0  0  0  0  0  0
   -3.3464    1.0636   -0.9626 C   0  0  0  0  0  0  0  0  0  0  0  0
   -4.7905    0.5649   -1.2642 C   0  0  0  0  0  0  0  0  0  0  0  0
   -5.6472    0.1448   -0.0338 C   0  0  1  0  0  0  0  0  0  0  0  0
   -4.8828   -0.7245    1.0082 C   0  0  0  0  0  0  0  0  0  0  0  0
   -6.2058    1.2937    0.6076 O   0  0  0  0  0  0  0  0  0  0  0  0
   -7.2677    2.0378    0.0832 C   0  0  0  0  0  0  0  0  0  0  0  0
   -7.8362    1.6991   -0.9891 O   0  0  0  0  0  0  0  0  0  0  0  0
   -3.0372    1.5572    1.5044 C   0  0  0  0  0  0  0  0  0  0  0  0
    1.6556    2.2488    0.6931 O   0  0  0  0  0  0  0  0  0  0  0  0
    1.6889    3.6295    0.4688 C   0  0  0  0  0  0  0  0  0  0  0  0
    1.3580    4.1182   -0.6445 O   0  0  0  0  0  0  0  0  0  0  0  0
    1.8071   -0.3231    1.6662 C   0  0  0  0  0  0  0  0  0  0  0  0
    4.3444    1.5556    0.2440 H   0  0  0  0  0  0  0  0  0  0  0  0
    5.3246    1.9175   -1.2124 H   0  0  0  0  0  0  0  0  0  0  0  0
    3.6386    2.4011   -1.1903 H   0  0  0  0  0  0  0  0  0  0  0  0
    3.2359    0.4203   -2.3394 H   0  0  0  0  0  0  0  0  0  0  0  0
    4.8964   -1.3853   -2.6382 H   0  0  0  0  0  0  0  0  0  0  0  0
    5.5920    0.2088   -2.8372 H   0  0  0  0  0  0  0  0  0  0  0  0
    7.2741   -0.7078   -1.5758 H   0  0  0  0  0  0  0  0  0  0  0  0
    6.3163   -0.0535   -0.2242 H   0  0  0  0  0  0  0  0  0  0  0  0
    3.8283   -0.8062    0.3953 H   0  0  0  0  0  0  0  0  0  0  0  0
    2.8705   -2.1244   -2.1036 H   0  0  0  0  0  0  0  0  0  0  0  0
    3.5671   -2.8488   -0.6014 H   0  0  0  0  0  0  0  0  0  0  0  0
    1.4383   -2.9768    0.4259 H   0  0  0  0  0  0  0  0  0  0  0  0
    0.9584   -3.1766   -1.3111 H   0  0  0  0  0  0  0  0  0  0  0  0
    0.6833   -0.8559   -1.6171 H   0  0  0  0  0  0  0  0  0  0  0  0
    1.6256    1.5607   -1.2623 H   0  0  0  0  0  0  0  0  0  0  0  0
   -0.6934    2.4313   -0.1998 H   0  0  0  0  0  0  0  0  0  0  0  0
   -0.5675    1.2919   -1.5581 H   0  0  0  0  0  0  0  0  0  0  0  0
   -0.8355    0.5060    1.3614 H   0  0  0  0  0  0  0  0  0  0  0  0
   -1.3281   -1.3731   -0.9711 H   0  0  0  0  0  0  0  0  0  0  0  0
   -0.4219   -2.0451    1.8873 H   0  0  0  0  0  0  0  0  0  0  0  0
   -1.1806   -3.0945    0.6510 H   0  0  0  0  0  0  0  0  0  0  0  0
   -3.1089   -2.6698    1.8627 H   0  0  0  0  0  0  0  0  0  0  0  0
   -2.4549   -1.1798    2.6064 H   0  0  0  0  0  0  0  0  0  0  0  0
   -3.4009   -1.4625   -0.2845 H   0  0  0  0  0  0  0  0  0  0  0  0
   -2.7219    0.7334   -1.8190 H   0  0  0  0  0  0  0  0  0  0  0  0
   -3.3303    2.1759   -0.9784 H   0  0  0  0  0  0  0  0  0  0  0  0
   -5.3245    1.3401   -1.8535 H   0  0  0  0  0  0  0  0  0  0  0  0
   -4.7163   -0.3210   -1.9336 H   0  0  0  0  0  0  0  0  0  0  0  0
   -6.4902   -0.4758   -0.4147 H   0  0  0  0  0  0  0  0  0  0  0  0
   -4.9947   -0.3033    2.0308 H   0  0  0  0  0  0  0  0  0  0  0  0
   -5.3373   -1.7397    1.0389 H   0  0  0  0  0  0  0  0  0  0  0  0
   -7.6112    2.9155    0.6128 H   0  0  0  0  0  0  0  0  0  0  0  0
   -4.0882    1.8890    1.5167 H   0  0  0  0  0  0  0  0  0  0  0  0
   -2.4286    2.4767    1.3758 H   0  0  0  0  0  0  0  0  0  0  0  0
   -2.8026    1.1342    2.5033 H   0  0  0  0  0  0  0  0  0  0  0  0
    2.0127    4.2871    1.2633 H   0  0  0  0  0  0  0  0  0  0  0  0
    0.9266    0.0002    2.2352 H   0  0  0  0  0  0  0  0  0  0  0  0
    2.0172   -1.3739    1.9534 H   0  0  0  0  0  0  0  0  0  0  0  0
    2.6481    0.2898    2.0566 H   0  0  0  0  0  0  0  0  0  0  0  0
  1  2  1  0
  2  3  1  0
  3  4  1  0
  4  5  1  0
  5  6  2  0
  5  7  1  0
  2  8  1  0
  8  9  1  0
  9 10  1  0
 10 11  1  0
 11 12  1  0
 12 13  1  0
 13 14  1  0
 14 15  1  0
 15 16  1  0
 16 17  1  0
 17 18  1  0
 18 19  1  0
 19 20  1  0
 20 21  1  0
 21 22  1  0
 22 23  1  0
 23 24  1  0
 23 25  1  0
 25 26  1  0
 26 27  2  0
 20 28  1  1
 13 29  1  0
 29 30  1  0
 30 31  2  0
 12 32  1  1
 12  8  1  0
 16 11  1  0
 20 15  1  0
 24 19  1  0
  1 33  1  0
  1 34  1  0
  1 35  1  0
  2 36  1  6
  3 37  1  0
  3 38  1  0
  4 39  1  0
  4 40  1  0
  8 41  1  1
  9 42  1  0
  9 43  1  0
 10 44  1  0
 10 45  1  0
 11 46  1  6
 13 47  1  6
 14 48  1  0
 14 49  1  0
 15 50  1  1
 16 51  1  6
 17 52  1  0
 17 53  1  0
 18 54  1  0
 18 55  1  0
 19 56  1  6
 21 57  1  0
 21 58  1  0
 22 59  1  0
 22 60  1  0
 23 61  1  6
 24 62  1  0
 24 63  1  0
 26 64  1  0
 28 65  1  0
 28 66  1  0
 28 67  1  0
 30 68  1  0
 32 69  1  0
 32 70  1  0
 32 71  1  0
M  CHG  1   7  -1
M  END
$$$$
