
     RDKit          3D

 71 74  0  0  0  0  0  0  0  0999 V2000
   -3.3879   -0.4256    2.4637 C   0  0  0  0  0  0  0  0  0  0  0  0
   -4.0733   -0.2160    1.0982 C   0  0  1  0  0  0  0  0  0  0  0  0
   -4.6591    1.2250    0.9826 C   0  0  0  0  0  0  0  0  0  0  0  0
   -5.4335    1.5303   -0.3111 C   0  0  0  0  0  0  0  0  0  0  0  0
   -6.5949    0.6046   -0.5109 C   0  0  0  0  0  0  0  0  0  0  0  0
   -7.6014    0.6807    0.2419 O   0  0  0  0  0  0  0  0  0  0  0  0
   -6.5615   -0.3506   -1.5189 O   0  0  0  0  0  0  0  0  0  0  0  0
   -3.2676   -0.7553   -0.1473 C   0  0  2  0  0  0  0  0  0  0  0  0
   -3.1445   -2.3090   -0.0968 C   0  0  0  0  0  0  0  0  0  0  0  0
   -1.6541   -2.6665   -0.0403 C   0  0  0  0  0  0  0  0  0  0  0  0
   -0.9498   -1.3390    0.1939 C   0  0  2  0  0  0  0  0  0  0  0  0
   -1.8068   -0.2594   -0.4887 C   0  0  2  0  0  0  0  0  0  0  0  0
   -1.3441    1.1576    0.0351 C   0  0  1  0  0  0  0  0  0  0  0  0
    0.1557    1.2221    0.4905 C   0  0  0  0  0  0  0  0  0  0  0  0
    1.0607    0.2138   -0.2547 C   0  0  2  0  0  0  0  0  0  0  0  0
    0.5870   -1.2493   -0.0396 C   0  0  2  0  0  0  0  0  0  0  0  0
    1.1779   -2.1461   -1.1619 C   0  0  0  0  0  0  0  0  0  0  0  0
    2.6552   -1.7846   -1.4991 C   0  0  0  0  0  0  0  0  0  0  0  0
    3.3218   -1.0132   -0.3384 C   0  0  2  0  0  0  0  0  0  0  0  0
    2.6261    0.3671   -0.0555 C   0  0  2  0  0  0  0  0  0  0  0  0
    3.0363    0.7980    1.3879 C   0  0  0  0  0  0  0  0  0  0  0  0
    4.4179    0.2616    1.8660 C   0  0  0  0  0  0  0  0  0  0  0  0
    5.4462   -0.0812    0.7548 C   0  0  1  0  0  0  0  0  0  0  0  0
    4.8464   -0.8653   -0.4535 C   0  0  0  0  0  0  0  0  0  0  0  0
    6.0946    1.1174    0.3253 O   0  0  0  0  0  0  0  0  0  0  0  0
    7.2891    1.1296   -0.4022 C   0  0  0  0  0  0  0  0  0  0  0  0
    7.8781    0.0580   -0.7063 O   0  0  0  0  0  0  0  0  0  0  0  0
    3.1030    1.4669   -1.0563 C   0  0  0  0  0  0  0  0  0  0  0  0
   -1.6163    2.1678   -0.9420 O   0  0  0  0  0  0  0  0  0  0  0  0
   -1.7276    3.5296   -0.6427 C   0  0  0  0  0  0  0  0  0  0  0  0
   -1.6150    3.9497    0.5399 O   0  0  0  0  0  0  0  0  0  0  0  0
   -1.6958   -0.3273   -2.0534 C   0  0  0  0  0  0  0  0  0  0  0  0
   -3.0574   -1.4762    2.5903 H   0  0  0  0  0  0  0  0  0  0  0  0
   -4.1118   -0.2137    3.2795 H   0  0  0  0  0  0  0  0  0  0  0  0
   -2.5182    0.2381    2.6178 H   0  0  0  0  0  0  0  0  0  0  0  0
   -4.9786   -0.8629    1.1507 H   0  0  0  0  0  0  0  0  0  0  0  0
   -5.3587    1.3803    1.8342 H   0  0  0  0  0  0  0  0  0  0  0  0
   -3.8895    2.0052    1.1089 H   0  0  0  0  0  0  0  0  0  0  0  0
   -4.7560    1.5038   -1.1900 H   0  0  0  0  0  0  0  0  0  0  0  0
   -5.8238    2.5692   -0.2506 H   0  0  0  0  0  0  0  0  0  0  0  0
   -3.9282   -0.5533   -1.0144 H   0  0  0  0  0  0  0  0  0  0  0  0
   -3.5934   -2.7578   -1.0110 H   0  0  0  0  0  0  0  0  0  0  0  0
   -3.6747   -2.7579    0.7701 H   0  0  0  0  0  0  0  0  0  0  0  0
   -1.3437   -3.1292   -1.0005 H   0  0  0  0  0  0  0  0  0  0  0  0
   -1.4415   -3.3800    0.7858 H   0  0  0  0  0  0  0  0  0  0  0  0
   -1.0614   -1.1611    1.2885 H   0  0  0  0  0  0  0  0  0  0  0  0
   -1.9034    1.4057    0.9393 H   0  0  0  0  0  0  0  0  0  0  0  0
    0.5475    2.2519    0.3592 H   0  0  0  0  0  0  0  0  0  0  0  0
    0.1948    1.0041    1.5792 H   0  0  0  0  0  0  0  0  0  0  0  0
    0.8963    0.4417   -1.3202 H   0  0  0  0  0  0  0  0  0  0  0  0
    1.0291   -1.6075    0.9175 H   0  0  0  0  0  0  0  0  0  0  0  0
    0.5710   -2.0606   -2.0872 H   0  0  0  0  0  0  0  0  0  0  0  0
    1.1336   -3.2059   -0.8288 H   0  0  0  0  0  0  0  0  0  0  0  0
    2.6887   -1.1726   -2.4252 H   0  0  0  0  0  0  0  0  0  0  0  0
    3.2196   -2.7206   -1.7028 H   0  0  0  0  0  0  0  0  0  0  0  0
    3.1850   -1.6753    0.5472 H   0  0  0  0  0  0  0  0  0  0  0  0
    3.0199    1.9065    1.4806 H   0  0  0  0  0  0  0  0  0  0  0  0
    2.2900    0.4161    2.1155 H   0  0  0  0  0  0  0  0  0  0  0  0
    4.8687    0.9920    2.5727 H   0  0  0  0  0  0  0  0  0  0  0  0
    4.2428   -0.6651    2.4573 H   0  0  0  0  0  0  0  0  0  0  0  0
    6.2165   -0.7268    1.2349 H   0  0  0  0  0  0  0  0  0  0  0  0
    5.1064   -0.3740   -1.4156 H   0  0  0  0  0  0  0  0  0  0  0  0
    5.3013   -1.8800   -0.4875 H   0  0  0  0  0  0  0  0  0  0  0  0
    7.7146    2.0758   -0.7064 H   0  0  0  0  0  0  0  0  0  0  0  0
    3.0151    1.1203   -2.1070 H   0  0  0  0  0  0  0  0  0  0  0  0
    4.1470    1.7799   -0.8907 H   0  0  0  0  0  0  0  0  0  0  0  0
    2.4879    2.3851   -0.9515 H   0  0  0  0  0  0  0  0  0  0  0  0
   -1.9187    4.2330   -1.4411 H   0  0  0  0  0  0  0  0  0  0  0  0
   -2.4490    0.3457   -2.5171 H   0  0  0  0  0  0  0  0  0  0  0  0
   -1.9024   -1.3471   -2.4383 H   0  0  0  0  0  0  0  0  0  0  0  0
   -0.7284   -0.0182   -2.4709 H   0  0  0  0  0  0  0  0  0  0  0  0
  1  2  1  0
  2  3  1  0
  3  4  1  0
  4  5  1  0
  5  6  2  0
  5  7  1  0
  2  8  1  0
  8  9  1  0
  9 10  1  0
 10 11  1  0
 11 12  1  0
 12 13  1  0
 13 14  1  0
 14 15  1  0
 15 16  1  0
 16 17  1  0
 17 18  1  0
 18 19  1  0
 19 20  1  0
 20 21  1  0
 21 22  1  0
 22 23  1  0
 23 24  1  0
 23 25  1  0
 25 26  1  0
 26 27  2  0
 20 28  1  6
 13 29  1  0
 29 30  1  0
 30 31  2  0
 12 32  1  6
 12  8  1  0
 16 11  1  0
 20 15  1  0
 24 19  1  0
  1 33  1  0
  1 34  1  0
  1 35  1  0
  2 36  1  1
  3 37  1  0
  3 38  1  0
  4 39  1  0
  4 40  1  0
  8 41  1  6
  9 42  1  0
  9 43  1  0
 10 44  1  0
 10 45  1  0
 11 46  1  1
 13 47  1  1
 14 48  1  0
 14 49  1  0
 15 50  1  6
 16 51  1  1
 17 52  1  0
 17 53  1  0
 18 54  1  0
 18 55  1  0
 19 56  1  1
 21 57  1  0
 21 58  1  0
 22 59  1  0
 22 60  1  0
 23 61  1  1
 24 62  1  0
 24 63  1  0
 26 64  1  0
 28 65  1  0
 28 66  1  0
 28 67  1  0
 30 68  1  0
 32 69  1  0
 32 70  1  0
 32 71  1  0
M  CHG  1   7  -1
M  END
$$$$
