
     RDKit          3D

 71 74  0  0  0  0  0  0  0  0999 V2000
   -4.4203    1.5814    0.2443 C   0  0  0  0  0  0  0  0  0  0  0  0
   -4.1179    0.1517    0.7673 C   0  0  1  0  0  0  0  0  0  0  0  0
   -5.4658   -0.5944    1.0236 C   0  0  0  0  0  0  0  0  0  0  0  0
   -6.3706   -0.7835   -0.2174 C   0  0  0  0  0  0  0  0  0  0  0  0
   -6.1520   -2.0986   -0.8992 C   0  0  0  0  0  0  0  0  0  0  0  0
   -6.4326   -3.1741   -0.3071 O   0  0  0  0  0  0  0  0  0  0  0  0
   -5.6571   -2.1383   -2.1967 O   0  0  0  0  0  0  0  0  0  0  0  0
   -3.1382   -0.6365   -0.1737 C   0  0  2  0  0  0  0  0  0  0  0  0
   -2.9581   -2.1261    0.2515 C   0  0  0  0  0  0  0  0  0  0  0  0
   -1.4878   -2.4798    0.0753 C   0  0  0  0  0  0  0  0  0  0  0  0
   -0.8119   -1.1544    0.3232 C   0  0  2  0  0  0  0  0  0  0  0  0
   -1.6587   -0.0839   -0.3914 C   0  0  2  0  0  0  0  0  0  0  0  0
   -1.2502    1.3117    0.2426 C   0  0  1  0  0  0  0  0  0  0  0  0
    0.2372    1.3917    0.7549 C   0  0  0  0  0  0  0  0  0  0  0  0
    1.1935    0.4200    0.0220 C   0  0  2  0  0  0  0  0  0  0  0  0
    0.7277   -1.0525    0.1612 C   0  0  2  0  0  0  0  0  0  0  0  0
    1.3707   -1.9041   -0.9657 C   0  0  0  0  0  0  0  0  0  0  0  0
    2.8593   -1.5195   -1.2216 C   0  0  0  0  0  0  0  0  0  0  0  0
    3.4669   -0.7858   -0.0038 C   0  0  2  0  0  0  0  0  0  0  0  0
    2.7460    0.5779    0.3004 C   0  0  2  0  0  0  0  0  0  0  0  0
    3.0841    0.9542    1.7768 C   0  0  0  0  0  0  0  0  0  0  0  0
    4.4483    0.4114    2.2965 C   0  0  0  0  0  0  0  0  0  0  0  0
    5.5296    0.1188    1.2215 C   0  0  1  0  0  0  0  0  0  0  0  0
    4.9933   -0.6216   -0.0432 C   0  0  0  0  0  0  0  0  0  0  0  0
    6.1875    1.3373    0.8693 O   0  0  0  0  0  0  0  0  0  0  0  0
    7.4141    1.3854    0.1991 C   0  0  0  0  0  0  0  0  0  0  0  0
    8.0252    0.3302   -0.1188 O   0  0  0  0  0  0  0  0  0  0  0  0
    3.2591    1.7199   -0.6331 C   0  0  0  0  0  0  0  0  0  0  0  0
   -1.5096    2.3728   -0.6837 O   0  0  0  0  0  0  0  0  0  0  0  0
   -1.5998    3.7210   -0.3203 C   0  0  0  0  0  0  0  0  0  0  0  0
   -1.4973    4.0811    0.8828 O   0  0  0  0  0  0  0  0  0  0  0  0
   -1.4424   -0.0754   -1.9432 C   0  0  0  0  0  0  0  0  0  0  0  0
   -4.2271    1.6660   -0.8462 H   0  0  0  0  0  0  0  0  0  0  0  0
   -5.4761    1.8779    0.4218 H   0  0  0  0  0  0  0  0  0  0  0  0
   -3.8231    2.3414    0.7820 H   0  0  0  0  0  0  0  0  0  0  0  0
   -3.6326    0.2423    1.7637 H   0  0  0  0  0  0  0  0  0  0  0  0
   -5.3014   -1.5657    1.5334 H   0  0  0  0  0  0  0  0  0  0  0  0
   -6.0383    0.0050    1.7661 H   0  0  0  0  0  0  0  0  0  0  0  0
   -6.2361    0.0383   -0.9507 H   0  0  0  0  0  0  0  0  0  0  0  0
   -7.4327   -0.7484    0.1083 H   0  0  0  0  0  0  0  0  0  0  0  0
   -3.6678   -0.6710   -1.1515 H   0  0  0  0  0  0  0  0  0  0  0  0
   -3.2028   -2.2655    1.3265 H   0  0  0  0  0  0  0  0  0  0  0  0
   -3.5857   -2.8132   -0.3527 H   0  0  0  0  0  0  0  0  0  0  0  0
   -1.2961   -2.8529   -0.9528 H   0  0  0  0  0  0  0  0  0  0  0  0
   -1.1625   -3.2468    0.8119 H   0  0  0  0  0  0  0  0  0  0  0  0
   -0.9755   -0.9768    1.4178 H   0  0  0  0  0  0  0  0  0  0  0  0
   -1.8545    1.4747    1.1528 H   0  0  0  0  0  0  0  0  0  0  0  0
    0.2415    1.1502    1.8391 H   0  0  0  0  0  0  0  0  0  0  0  0
    0.6183    2.4294    0.6641 H   0  0  0  0  0  0  0  0  0  0  0  0
    1.0820    0.6849   -1.0402 H   0  0  0  0  0  0  0  0  0  0  0  0
    1.1285   -1.4436    1.1237 H   0  0  0  0  0  0  0  0  0  0  0  0
    0.8038   -1.7889   -1.9125 H   0  0  0  0  0  0  0  0  0  0  0  0
    1.3174   -2.9757   -0.6743 H   0  0  0  0  0  0  0  0  0  0  0  0
    3.4406   -2.4432   -1.4335 H   0  0  0  0  0  0  0  0  0  0  0  0
    2.9290   -0.8731   -2.1219 H   0  0  0  0  0  0  0  0  0  0  0  0
    3.2974   -1.4823    0.8491 H   0  0  0  0  0  0  0  0  0  0  0  0
    2.3089    0.5367    2.4529 H   0  0  0  0  0  0  0  0  0  0  0  0
    3.0511    2.0580    1.9124 H   0  0  0  0  0  0  0  0  0  0  0  0
    4.2556   -0.5382    2.8442 H   0  0  0  0  0  0  0  0  0  0  0  0
    4.8594    1.1182    3.0498 H   0  0  0  0  0  0  0  0  0  0  0  0
    6.2822   -0.5401    1.7116 H   0  0  0  0  0  0  0  0  0  0  0  0
    5.2920   -0.0905   -0.9723 H   0  0  0  0  0  0  0  0  0  0  0  0
    5.4591   -1.6305   -0.0961 H   0  0  0  0  0  0  0  0  0  0  0  0
    7.8457    2.3454   -0.0479 H   0  0  0  0  0  0  0  0  0  0  0  0
    4.2906    2.0352   -0.4051 H   0  0  0  0  0  0  0  0  0  0  0  0
    2.6302    2.6281   -0.5230 H   0  0  0  0  0  0  0  0  0  0  0  0
    3.2255    1.4133   -1.6993 H   0  0  0  0  0  0  0  0  0  0  0  0
   -1.7691    4.4653   -1.0859 H   0  0  0  0  0  0  0  0  0  0  0  0
   -1.5818   -1.0860   -2.3791 H   0  0  0  0  0  0  0  0  0  0  0  0
   -0.4710    0.2979   -2.2905 H   0  0  0  0  0  0  0  0  0  0  0  0
   -2.1970    0.5862   -2.4206 H   0  0  0  0  0  0  0  0  0  0  0  0
  1  2  1  0
  2  3  1  0
  3  4  1  0
  4  5  1  0
  5  6  2  0
  5  7  1  0
  2  8  1  0
  8  9  1  0
  9 10  1  0
 10 11  1  0
 11 12  1  0
 12 13  1  0
 13 14  1  0
 14 15  1  0
 15 16  1  0
 16 17  1  0
 17 18  1  0
 18 19  1  0
 19 20  1  0
 20 21  1  0
 21 22  1  0
 22 23  1  0
 23 24  1  0
 23 25  1  0
 25 26  1  0
 26 27  2  0
 20 28  1  6
 13 29  1  0
 29 30  1  0
 30 31  2  0
 12 32  1  6
 12  8  1  0
 16 11  1  0
 20 15  1  0
 24 19  1  0
  1 33  1  0
  1 34  1  0
  1 35  1  0
  2 36  1  1
  3 37  1  0
  3 38  1  0
  4 39  1  0
  4 40  1  0
  8 41  1  6
  9 42  1  0
  9 43  1  0
 10 44  1  0
 10 45  1  0
 11 46  1  1
 13 47  1  1
 14 48  1  0
 14 49  1  0
 15 50  1  6
 16 51  1  1
 17 52  1  0
 17 53  1  0
 18 54  1  0
 18 55  1  0
 19 56  1  1
 21 57  1  0
 21 58  1  0
 22 59  1  0
 22 60  1  0
 23 61  1  1
 24 62  1  0
 24 63  1  0
 26 64  1  0
 28 65  1  0
 28 66  1  0
 28 67  1  0
 30 68  1  0
 32 69  1  0
 32 70  1  0
 32 71  1  0
M  CHG  1   7  -1
M  END
$$$$
