
     RDKit          3D

 71 74  0  0  0  0  0  0  0  0999 V2000
    4.3659    1.2192   -1.2783 C   0  0  0  0  0  0  0  0  0  0  0  0
    3.9996   -0.1558   -0.6681 C   0  0  1  0  0  0  0  0  0  0  0  0
    5.3199   -0.9544   -0.4359 C   0  0  0  0  0  0  0  0  0  0  0  0
    6.1129   -1.1901   -1.7327 C   0  0  0  0  0  0  0  0  0  0  0  0
    7.2865   -2.0831   -1.4770 C   0  0  0  0  0  0  0  0  0  0  0  0
    8.3829   -1.5951   -1.0958 O   0  0  0  0  0  0  0  0  0  0  0  0
    7.1553   -3.4595   -1.6113 O   0  0  0  0  0  0  0  0  0  0  0  0
    3.1665    0.0372    0.6501 C   0  0  2  0  0  0  0  0  0  0  0  0
    3.0533   -1.2606    1.5112 C   0  0  0  0  0  0  0  0  0  0  0  0
    1.6270   -1.3394    2.0383 C   0  0  0  0  0  0  0  0  0  0  0  0
    0.8557   -0.6516    0.9389 C   0  0  2  0  0  0  0  0  0  0  0  0
    1.6724    0.5903    0.5331 C   0  0  2  0  0  0  0  0  0  0  0  0
    1.1162    1.0777   -0.8821 C   0  0  1  0  0  0  0  0  0  0  0  0
   -0.3745    0.6681   -1.1708 C   0  0  0  0  0  0  0  0  0  0  0  0
   -1.2245    0.6028    0.1171 C   0  0  2  0  0  0  0  0  0  0  0  0
   -0.6772   -0.4724    1.0908 C   0  0  2  0  0  0  0  0  0  0  0  0
   -1.2220   -0.1998    2.5187 C   0  0  0  0  0  0  0  0  0  0  0  0
   -2.7357    0.1833    2.5128 C   0  0  0  0  0  0  0  0  0  0  0  0
   -3.4123   -0.2279    1.1848 C   0  0  2  0  0  0  0  0  0  0  0  0
   -2.7984    0.5210   -0.0527 C   0  0  2  0  0  0  0  0  0  0  0  0
   -3.2499   -0.2800   -1.3048 C   0  0  0  0  0  0  0  0  0  0  0  0
   -4.7913   -0.4248   -1.3944 C   0  0  0  0  0  0  0  0  0  0  0  0
   -5.4610   -0.9247   -0.0862 C   0  0  1  0  0  0  0  0  0  0  0  0
   -4.9457   -0.1969    1.1762 C   0  0  0  0  0  0  0  0  0  0  0  0
   -6.8771   -0.7563   -0.1645 O   0  0  0  0  0  0  0  0  0  0  0  0
   -7.7086   -1.5574   -0.9536 C   0  0  0  0  0  0  0  0  0  0  0  0
   -7.2465   -2.5234   -1.6178 O   0  0  0  0  0  0  0  0  0  0  0  0
   -3.3218    1.9887   -0.1721 C   0  0  0  0  0  0  0  0  0  0  0  0
    1.2378    2.5005   -1.0033 O   0  0  0  0  0  0  0  0  0  0  0  0
    1.2334    3.1817   -2.2256 C   0  0  0  0  0  0  0  0  0  0  0  0
    1.1619    2.5600   -3.3193 O   0  0  0  0  0  0  0  0  0  0  0  0
    1.5674    1.7405    1.5915 C   0  0  0  0  0  0  0  0  0  0  0  0
    3.6053    1.9912   -1.0862 H   0  0  0  0  0  0  0  0  0  0  0  0
    5.3077    1.6137   -0.8395 H   0  0  0  0  0  0  0  0  0  0  0  0
    4.4928    1.1281   -2.3777 H   0  0  0  0  0  0  0  0  0  0  0  0
    3.3891   -0.7402   -1.3890 H   0  0  0  0  0  0  0  0  0  0  0  0
    5.1084   -1.9549   -0.0126 H   0  0  0  0  0  0  0  0  0  0  0  0
    5.9600   -0.4156    0.2978 H   0  0  0  0  0  0  0  0  0  0  0  0
    5.4567   -1.6646   -2.4939 H   0  0  0  0  0  0  0  0  0  0  0  0
    6.4840   -0.2278   -2.1449 H   0  0  0  0  0  0  0  0  0  0  0  0
    3.7813    0.7380    1.2622 H   0  0  0  0  0  0  0  0  0  0  0  0
    3.7874   -1.2693    2.3462 H   0  0  0  0  0  0  0  0  0  0  0  0
    3.1962   -2.1694    0.8900 H   0  0  0  0  0  0  0  0  0  0  0  0
    1.5326   -0.8069    3.0077 H   0  0  0  0  0  0  0  0  0  0  0  0
    1.2974   -2.3939    2.1667 H   0  0  0  0  0  0  0  0  0  0  0  0
    0.9512   -1.3545    0.0705 H   0  0  0  0  0  0  0  0  0  0  0  0
    1.7045    0.6089   -1.6920 H   0  0  0  0  0  0  0  0  0  0  0  0
   -0.8300    1.3874   -1.8827 H   0  0  0  0  0  0  0  0  0  0  0  0
   -0.3931   -0.3276   -1.6661 H   0  0  0  0  0  0  0  0  0  0  0  0
   -1.0469    1.5748    0.6043 H   0  0  0  0  0  0  0  0  0  0  0  0
   -1.0864   -1.4579    0.7752 H   0  0  0  0  0  0  0  0  0  0  0  0
   -1.0827   -1.1168    3.1317 H   0  0  0  0  0  0  0  0  0  0  0  0
   -0.6453    0.6142    3.0046 H   0  0  0  0  0  0  0  0  0  0  0  0
   -2.8477    1.2766    2.6698 H   0  0  0  0  0  0  0  0  0  0  0  0
   -3.2396   -0.3237    3.3643 H   0  0  0  0  0  0  0  0  0  0  0  0
   -3.1911   -1.3157    1.0939 H   0  0  0  0  0  0  0  0  0  0  0  0
   -2.8960    0.2179   -2.2327 H   0  0  0  0  0  0  0  0  0  0  0  0
   -2.7950   -1.2948   -1.2821 H   0  0  0  0  0  0  0  0  0  0  0  0
   -5.0200   -1.1430   -2.2105 H   0  0  0  0  0  0  0  0  0  0  0  0
   -5.2471    0.5387   -1.7031 H   0  0  0  0  0  0  0  0  0  0  0  0
   -5.2315   -2.0083    0.0331 H   0  0  0  0  0  0  0  0  0  0  0  0
   -5.3287   -0.7354    2.0707 H   0  0  0  0  0  0  0  0  0  0  0  0
   -5.3381    0.8384    1.2366 H   0  0  0  0  0  0  0  0  0  0  0  0
   -8.7688   -1.3479   -0.9875 H   0  0  0  0  0  0  0  0  0  0  0  0
   -2.8220    2.5048   -1.0192 H   0  0  0  0  0  0  0  0  0  0  0  0
   -4.4094    2.0644   -0.3523 H   0  0  0  0  0  0  0  0  0  0  0  0
   -3.1082    2.5673    0.7505 H   0  0  0  0  0  0  0  0  0  0  0  0
    1.3004    4.2607   -2.2304 H   0  0  0  0  0  0  0  0  0  0  0  0
    0.5823    2.2213    1.6681 H   0  0  0  0  0  0  0  0  0  0  0  0
    2.2830    2.5505    1.3329 H   0  0  0  0  0  0  0  0  0  0  0  0
    1.8392    1.3916    2.6085 H   0  0  0  0  0  0  0  0  0  0  0  0
  1  2  1  0
  2  3  1  0
  3  4  1  0
  4  5  1  0
  5  6  2  0
  5  7  1  0
  2  8  1  0
  8  9  1  0
  9 10  1  0
 10 11  1  0
 11 12  1  0
 12 13  1  0
 13 14  1  0
 14 15  1  0
 15 16  1  0
 16 17  1  0
 17 18  1  0
 18 19  1  0
 19 20  1  0
 20 21  1  0
 21 22  1  0
 22 23  1  0
 23 24  1  0
 23 25  1  0
 25 26  1  0
 26 27  2  0
 20 28  1  6
 13 29  1  0
 29 30  1  0
 30 31  2  0
 12 32  1  1
 12  8  1  0
 16 11  1  0
 20 15  1  0
 24 19  1  0
  1 33  1  0
  1 34  1  0
  1 35  1  0
  2 36  1  6
  3 37  1  0
  3 38  1  0
  4 39  1  0
  4 40  1  0
  8 41  1  1
  9 42  1  0
  9 43  1  0
 10 44  1  0
 10 45  1  0
 11 46  1  6
 13 47  1  6
 14 48  1  0
 14 49  1  0
 15 50  1  1
 16 51  1  6
 17 52  1  0
 17 53  1  0
 18 54  1  0
 18 55  1  0
 19 56  1  6
 21 57  1  0
 21 58  1  0
 22 59  1  0
 22 60  1  0
 23 61  1  1
 24 62  1  0
 24 63  1  0
 26 64  1  0
 28 65  1  0
 28 66  1  0
 28 67  1  0
 30 68  1  0
 32 69  1  0
 32 70  1  0
 32 71  1  0
M  CHG  1   7  -1
M  END
$$$$
