
     RDKit          3D

 71 74  0  0  0  0  0  0  0  0999 V2000
   -3.9587    1.8071   -1.5835 C   0  0  0  0  0  0  0  0  0  0  0  0
   -3.9909    1.0821   -0.2063 C   0  0  1  0  0  0  0  0  0  0  0  0
   -5.4895    0.9037    0.2159 C   0  0  0  0  0  0  0  0  0  0  0  0
   -5.7390    0.7784    1.7315 C   0  0  0  0  0  0  0  0  0  0  0  0
   -7.1481    1.1551    2.0735 C   0  0  0  0  0  0  0  0  0  0  0  0
   -7.4195    2.3292    2.4386 O   0  0  0  0  0  0  0  0  0  0  0  0
   -8.1689    0.2222    1.9413 O   0  0  0  0  0  0  0  0  0  0  0  0
   -3.2021   -0.2767   -0.2881 C   0  0  2  0  0  0  0  0  0  0  0  0
   -3.2839   -1.1293    1.0075 C   0  0  0  0  0  0  0  0  0  0  0  0
   -1.9422   -1.8296    1.1708 C   0  0  0  0  0  0  0  0  0  0  0  0
   -0.9979   -0.7976    0.6078 C   0  0  2  0  0  0  0  0  0  0  0  0
   -1.6525   -0.2513   -0.6765 C   0  0  2  0  0  0  0  0  0  0  0  0
   -0.9471    1.1396   -0.9866 C   0  0  1  0  0  0  0  0  0  0  0  0
    0.5373    1.2488   -0.4700 C   0  0  0  0  0  0  0  0  0  0  0  0
    1.2569   -0.1213   -0.4005 C   0  0  2  0  0  0  0  0  0  0  0  0
    0.5201   -1.1024    0.5479 C   0  0  2  0  0  0  0  0  0  0  0  0
    0.9323   -2.5588    0.2082 C   0  0  0  0  0  0  0  0  0  0  0  0
    2.4553   -2.6828   -0.1017 C   0  0  0  0  0  0  0  0  0  0  0  0
    3.2473   -1.4903    0.4842 C   0  0  2  0  0  0  0  0  0  0  0  0
    2.8206   -0.1138   -0.1448 C   0  0  2  0  0  0  0  0  0  0  0  0
    3.2899    1.0045    0.8374 C   0  0  0  0  0  0  0  0  0  0  0  0
    4.5388    0.6427    1.6943 C   0  0  0  0  0  0  0  0  0  0  0  0
    5.4986   -0.4280    1.0970 C   0  0  1  0  0  0  0  0  0  0  0  0
    4.7736   -1.6638    0.4858 C   0  0  0  0  0  0  0  0  0  0  0  0
    6.3644    0.1587    0.1225 O   0  0  0  0  0  0  0  0  0  0  0  0
    7.4418    0.9921    0.4407 C   0  0  0  0  0  0  0  0  0  0  0  0
    7.7448    1.2398    1.6384 O   0  0  0  0  0  0  0  0  0  0  0  0
    3.5034    0.1218   -1.5291 C   0  0  0  0  0  0  0  0  0  0  0  0
   -0.9884    1.4177   -2.3910 O   0  0  0  0  0  0  0  0  0  0  0  0
   -0.8036    2.6918   -2.9388 C   0  0  0  0  0  0  0  0  0  0  0  0
   -0.6263    3.6993   -2.2031 O   0  0  0  0  0  0  0  0  0  0  0  0
   -1.5073   -1.2315   -1.8899 C   0  0  0  0  0  0  0  0  0  0  0  0
   -3.5517    1.1593   -2.3866 H   0  0  0  0  0  0  0  0  0  0  0  0
   -4.9581    2.1275   -1.9446 H   0  0  0  0  0  0  0  0  0  0  0  0
   -3.3485    2.7310   -1.5189 H   0  0  0  0  0  0  0  0  0  0  0  0
   -3.5015    1.7380    0.5459 H   0  0  0  0  0  0  0  0  0  0  0  0
   -5.9341    0.0303   -0.3095 H   0  0  0  0  0  0  0  0  0  0  0  0
   -6.0610    1.8002   -0.1142 H   0  0  0  0  0  0  0  0  0  0  0  0
   -5.5986   -0.2696    2.0612 H   0  0  0  0  0  0  0  0  0  0  0  0
   -5.0411    1.4313    2.2992 H   0  0  0  0  0  0  0  0  0  0  0  0
   -3.7656   -0.8682   -1.0471 H   0  0  0  0  0  0  0  0  0  0  0  0
   -3.3998   -0.4702    1.8931 H   0  0  0  0  0  0  0  0  0  0  0  0
   -4.1146   -1.8675    0.9717 H   0  0  0  0  0  0  0  0  0  0  0  0
   -1.7226   -2.0440    2.2398 H   0  0  0  0  0  0  0  0  0  0  0  0
   -1.9159   -2.7755    0.5900 H   0  0  0  0  0  0  0  0  0  0  0  0
   -1.0601    0.0417    1.3489 H   0  0  0  0  0  0  0  0  0  0  0  0
   -1.4907    1.9395   -0.4495 H   0  0  0  0  0  0  0  0  0  0  0  0
    0.5196    1.7013    0.5443 H   0  0  0  0  0  0  0  0  0  0  0  0
    1.1165    1.9437   -1.1122 H   0  0  0  0  0  0  0  0  0  0  0  0
    1.1510   -0.5310   -1.4169 H   0  0  0  0  0  0  0  0  0  0  0  0
    0.8783   -0.9046    1.5837 H   0  0  0  0  0  0  0  0  0  0  0  0
    0.6831   -3.2085    1.0753 H   0  0  0  0  0  0  0  0  0  0  0  0
    0.3575   -2.9347   -0.6628 H   0  0  0  0  0  0  0  0  0  0  0  0
    2.8355   -3.6351    0.3278 H   0  0  0  0  0  0  0  0  0  0  0  0
    2.6103   -2.7322   -1.2003 H   0  0  0  0  0  0  0  0  0  0  0  0
    2.9813   -1.4906    1.5660 H   0  0  0  0  0  0  0  0  0  0  0  0
    2.4762    1.2318    1.5576 H   0  0  0  0  0  0  0  0  0  0  0  0
    3.4853    1.9493    0.2835 H   0  0  0  0  0  0  0  0  0  0  0  0
    5.1008    1.5727    1.9239 H   0  0  0  0  0  0  0  0  0  0  0  0
    4.1834    0.2581    2.6762 H   0  0  0  0  0  0  0  0  0  0  0  0
    6.1321   -0.8061    1.9316 H   0  0  0  0  0  0  0  0  0  0  0  0
    5.0269   -2.5672    1.0840 H   0  0  0  0  0  0  0  0  0  0  0  0
    5.1360   -1.8630   -0.5460 H   0  0  0  0  0  0  0  0  0  0  0  0
    8.0295    1.4250   -0.3569 H   0  0  0  0  0  0  0  0  0  0  0  0
    4.5846    0.3211   -1.4507 H   0  0  0  0  0  0  0  0  0  0  0  0
    3.0653    1.0072   -2.0359 H   0  0  0  0  0  0  0  0  0  0  0  0
    3.3666   -0.7525   -2.1991 H   0  0  0  0  0  0  0  0  0  0  0  0
   -0.8215    2.8138   -4.0128 H   0  0  0  0  0  0  0  0  0  0  0  0
   -1.8475   -2.2549   -1.6304 H   0  0  0  0  0  0  0  0  0  0  0  0
   -2.1473   -0.8848   -2.7292 H   0  0  0  0  0  0  0  0  0  0  0  0
   -0.4985   -1.3201   -2.3134 H   0  0  0  0  0  0  0  0  0  0  0  0
  1  2  1  0
  2  3  1  0
  3  4  1  0
  4  5  1  0
  5  6  2  0
  5  7  1  0
  2  8  1  0
  8  9  1  0
  9 10  1  0
 10 11  1  0
 11 12  1  0
 12 13  1  0
 13 14  1  0
 14 15  1  0
 15 16  1  0
 16 17  1  0
 17 18  1  0
 18 19  1  0
 19 20  1  0
 20 21  1  0
 21 22  1  0
 22 23  1  0
 23 24  1  0
 23 25  1  0
 25 26  1  0
 26 27  2  0
 20 28  1  6
 13 29  1  0
 29 30  1  0
 30 31  2  0
 12 32  1  6
 12  8  1  0
 16 11  1  0
 20 15  1  0
 24 19  1  0
  1 33  1  0
  1 34  1  0
  1 35  1  0
  2 36  1  1
  3 37  1  0
  3 38  1  0
  4 39  1  0
  4 40  1  0
  8 41  1  6
  9 42  1  0
  9 43  1  0
 10 44  1  0
 10 45  1  0
 11 46  1  1
 13 47  1  1
 14 48  1  0
 14 49  1  0
 15 50  1  6
 16 51  1  1
 17 52  1  0
 17 53  1  0
 18 54  1  0
 18 55  1  0
 19 56  1  1
 21 57  1  0
 21 58  1  0
 22 59  1  0
 22 60  1  0
 23 61  1  1
 24 62  1  0
 24 63  1  0
 26 64  1  0
 28 65  1  0
 28 66  1  0
 28 67  1  0
 30 68  1  0
 32 69  1  0
 32 70  1  0
 32 71  1  0
M  CHG  1   7  -1
M  END
$$$$
