
     RDKit          3D

 71 74  0  0  0  0  0  0  0  0999 V2000
   -4.2665    0.2701    1.9738 C   0  0  0  0  0  0  0  0  0  0  0  0
   -3.9448   -0.6480    0.7693 C   0  0  1  0  0  0  0  0  0  0  0  0
   -5.2793   -1.2842    0.2700 C   0  0  0  0  0  0  0  0  0  0  0  0
   -5.9836   -2.1227    1.3502 C   0  0  0  0  0  0  0  0  0  0  0  0
   -7.1732   -2.8273    0.7771 C   0  0  0  0  0  0  0  0  0  0  0  0
   -8.2919   -2.2508    0.7359 O   0  0  0  0  0  0  0  0  0  0  0  0
   -7.0356   -4.1020    0.2425 O   0  0  0  0  0  0  0  0  0  0  0  0
   -3.2021    0.1642   -0.3522 C   0  0  2  0  0  0  0  0  0  0  0  0
   -3.1496   -0.5757   -1.7263 C   0  0  0  0  0  0  0  0  0  0  0  0
   -1.7622   -0.3560   -2.3139 C   0  0  0  0  0  0  0  0  0  0  0  0
   -0.9173   -0.2398   -1.0692 C   0  0  2  0  0  0  0  0  0  0  0  0
   -1.7024    0.6428   -0.0800 C   0  0  2  0  0  0  0  0  0  0  0  0
   -1.0513    0.4278    1.3620 C   0  0  1  0  0  0  0  0  0  0  0  0
    0.4548   -0.0245    1.3344 C   0  0  0  0  0  0  0  0  0  0  0  0
    1.2159    0.5458    0.1175 C   0  0  2  0  0  0  0  0  0  0  0  0
    0.6022    0.0353   -1.2116 C   0  0  2  0  0  0  0  0  0  0  0  0
    1.0502    0.9604   -2.3750 C   0  0  0  0  0  0  0  0  0  0  0  0
    2.5617    1.3411   -2.2818 C   0  0  0  0  0  0  0  0  0  0  0  0
    3.3254    0.3770   -1.3448 C   0  0  2  0  0  0  0  0  0  0  0  0
    2.7976    0.4413    0.1337 C   0  0  2  0  0  0  0  0  0  0  0  0
    3.3309   -0.8384    0.8349 C   0  0  0  0  0  0  0  0  0  0  0  0
    4.8746   -0.9602    0.7529 C   0  0  0  0  0  0  0  0  0  0  0  0
    5.4514   -0.7778   -0.6723 C   0  0  1  0  0  0  0  0  0  0  0  0
    4.8561    0.4437   -1.4170 C   0  0  0  0  0  0  0  0  0  0  0  0
    6.8710   -0.6506   -0.5800 O   0  0  0  0  0  0  0  0  0  0  0  0
    7.7363   -0.8407   -1.6622 C   0  0  0  0  0  0  0  0  0  0  0  0
    7.3020   -1.1898   -2.7924 O   0  0  0  0  0  0  0  0  0  0  0  0
    3.3304    1.6983    0.8944 C   0  0  0  0  0  0  0  0  0  0  0  0
   -1.1617    1.6242    2.1432 O   0  0  0  0  0  0  0  0  0  0  0  0
   -1.0737    1.6541    3.5395 C   0  0  0  0  0  0  0  0  0  0  0  0
   -0.9299    0.5954    4.2074 O   0  0  0  0  0  0  0  0  0  0  0  0
   -1.6668    2.1571   -0.4797 C   0  0  0  0  0  0  0  0  0  0  0  0
   -4.3192   -0.3286    2.9075 H   0  0  0  0  0  0  0  0  0  0  0  0
   -5.2351    0.7956    1.8290 H   0  0  0  0  0  0  0  0  0  0  0  0
   -3.5193    1.0647    2.1205 H   0  0  0  0  0  0  0  0  0  0  0  0
   -3.2882   -1.4832    1.0936 H   0  0  0  0  0  0  0  0  0  0  0  0
   -5.9662   -0.4843   -0.0855 H   0  0  0  0  0  0  0  0  0  0  0  0
   -5.0986   -1.9636   -0.5848 H   0  0  0  0  0  0  0  0  0  0  0  0
   -6.3245   -1.4766    2.1868 H   0  0  0  0  0  0  0  0  0  0  0  0
   -5.2784   -2.8782    1.7592 H   0  0  0  0  0  0  0  0  0  0  0  0
   -3.8554    1.0513   -0.5259 H   0  0  0  0  0  0  0  0  0  0  0  0
   -3.2521   -1.6733   -1.5965 H   0  0  0  0  0  0  0  0  0  0  0  0
   -3.9383   -0.2146   -2.4219 H   0  0  0  0  0  0  0  0  0  0  0  0
   -1.4440   -1.2175   -2.9413 H   0  0  0  0  0  0  0  0  0  0  0  0
   -1.7323    0.5707   -2.9241 H   0  0  0  0  0  0  0  0  0  0  0  0
   -0.9555   -1.2699   -0.6277 H   0  0  0  0  0  0  0  0  0  0  0  0
   -1.5845   -0.3828    1.8915 H   0  0  0  0  0  0  0  0  0  0  0  0
    0.5048   -1.1352    1.3031 H   0  0  0  0  0  0  0  0  0  0  0  0
    0.9586    0.2916    2.2714 H   0  0  0  0  0  0  0  0  0  0  0  0
    1.0075    1.6269    0.1545 H   0  0  0  0  0  0  0  0  0  0  0  0
    1.0298   -0.9707   -1.4202 H   0  0  0  0  0  0  0  0  0  0  0  0
    0.8679    0.4332   -3.3366 H   0  0  0  0  0  0  0  0  0  0  0  0
    0.4438    1.8897   -2.3866 H   0  0  0  0  0  0  0  0  0  0  0  0
    2.6652    2.3837   -1.9147 H   0  0  0  0  0  0  0  0  0  0  0  0
    3.0058    1.3064   -3.3004 H   0  0  0  0  0  0  0  0  0  0  0  0
    3.1080   -0.6331   -1.7610 H   0  0  0  0  0  0  0  0  0  0  0  0
    3.0413   -0.8431    1.9074 H   0  0  0  0  0  0  0  0  0  0  0  0
    2.8743   -1.7383    0.3669 H   0  0  0  0  0  0  0  0  0  0  0  0
    5.3503   -0.2357    1.4460 H   0  0  0  0  0  0  0  0  0  0  0  0
    5.1645   -1.9674    1.1233 H   0  0  0  0  0  0  0  0  0  0  0  0
    5.2069   -1.7005   -1.2468 H   0  0  0  0  0  0  0  0  0  0  0  0
    5.2486    1.3971   -1.0094 H   0  0  0  0  0  0  0  0  0  0  0  0
    5.1693    0.3996   -2.4823 H   0  0  0  0  0  0  0  0  0  0  0  0
    8.7983   -0.6930   -1.5232 H   0  0  0  0  0  0  0  0  0  0  0  0
    3.0529    2.6344    0.3668 H   0  0  0  0  0  0  0  0  0  0  0  0
    4.4281    1.7162    1.0192 H   0  0  0  0  0  0  0  0  0  0  0  0
    2.8926    1.7416    1.9142 H   0  0  0  0  0  0  0  0  0  0  0  0
   -1.1382    2.6029    4.0536 H   0  0  0  0  0  0  0  0  0  0  0  0
   -2.3619    2.7301    0.1711 H   0  0  0  0  0  0  0  0  0  0  0  0
   -0.6883    2.6472   -0.3813 H   0  0  0  0  0  0  0  0  0  0  0  0
   -2.0072    2.3166   -1.5231 H   0  0  0  0  0  0  0  0  0  0  0  0
  1  2  1  0
  2  3  1  0
  3  4  1  0
  4  5  1  0
  5  6  2  0
  5  7  1  0
  2  8  1  0
  8  9  1  0
  9 10  1  0
 10 11  1  0
 11 12  1  0
 12 13  1  0
 13 14  1  0
 14 15  1  0
 15 16  1  0
 16 17  1  0
 17 18  1  0
 18 19  1  0
 19 20  1  0
 20 21  1  0
 21 22  1  0
 22 23  1  0
 23 24  1  0
 23 25  1  0
 25 26  1  0
 26 27  2  0
 20 28  1  1
 13 29  1  0
 29 30  1  0
 30 31  2  0
 12 32  1  6
 12  8  1  0
 16 11  1  0
 20 15  1  0
 24 19  1  0
  1 33  1  0
  1 34  1  0
  1 35  1  0
  2 36  1  1
  3 37  1  0
  3 38  1  0
  4 39  1  0
  4 40  1  0
  8 41  1  6
  9 42  1  0
  9 43  1  0
 10 44  1  0
 10 45  1  0
 11 46  1  1
 13 47  1  1
 14 48  1  0
 14 49  1  0
 15 50  1  6
 16 51  1  6
 17 52  1  0
 17 53  1  0
 18 54  1  0
 18 55  1  0
 19 56  1  6
 21 57  1  0
 21 58  1  0
 22 59  1  0
 22 60  1  0
 23 61  1  6
 24 62  1  0
 24 63  1  0
 26 64  1  0
 28 65  1  0
 28 66  1  0
 28 67  1  0
 30 68  1  0
 32 69  1  0
 32 70  1  0
 32 71  1  0
M  CHG  1   7  -1
M  END
$$$$
