
     RDKit          3D

 71 74  0  0  0  0  0  0  0  0999 V2000
    3.7298   -2.7810    0.6919 C   0  0  0  0  0  0  0  0  0  0  0  0
    3.6198   -1.3674    1.3122 C   0  0  1  0  0  0  0  0  0  0  0  0
    4.9864   -1.0142    1.9788 C   0  0  0  0  0  0  0  0  0  0  0  0
    6.1641   -0.8869    0.9964 C   0  0  0  0  0  0  0  0  0  0  0  0
    7.4284   -0.5853    1.7372 C   0  0  0  0  0  0  0  0  0  0  0  0
    7.7550    0.6076    1.9736 O   0  0  0  0  0  0  0  0  0  0  0  0
    8.2212   -1.6228    2.2110 O   0  0  0  0  0  0  0  0  0  0  0  0
    3.1334   -0.3045    0.2588 C   0  0  2  0  0  0  0  0  0  0  0  0
    3.3211    1.1673    0.7410 C   0  0  0  0  0  0  0  0  0  0  0  0
    2.1036    1.9572    0.2817 C   0  0  0  0  0  0  0  0  0  0  0  0
    1.0233    0.9041    0.3068 C   0  0  2  0  0  0  0  0  0  0  0  0
    1.6373   -0.3774   -0.2912 C   0  0  2  0  0  0  0  0  0  0  0  0
    0.6975   -1.5855    0.1418 C   0  0  1  0  0  0  0  0  0  0  0  0
   -0.8048   -1.1855    0.3898 C   0  0  0  0  0  0  0  0  0  0  0  0
   -1.2560    0.0211   -0.4676 C   0  0  2  0  0  0  0  0  0  0  0  0
   -0.4072    1.2811   -0.1593 C   0  0  2  0  0  0  0  0  0  0  0  0
   -0.5202    2.2815   -1.3403 C   0  0  0  0  0  0  0  0  0  0  0  0
   -1.9708    2.3685   -1.9041 C   0  0  0  0  0  0  0  0  0  0  0  0
   -3.0057    1.8633   -0.8720 C   0  0  2  0  0  0  0  0  0  0  0  0
   -2.8062    0.3466   -0.5100 C   0  0  2  0  0  0  0  0  0  0  0  0
   -3.5367    0.0991    0.8469 C   0  0  0  0  0  0  0  0  0  0  0  0
   -4.7455    1.0412    1.1225 C   0  0  0  0  0  0  0  0  0  0  0  0
   -5.4495    1.6432   -0.1289 C   0  0  1  0  0  0  0  0  0  0  0  0
   -4.4697    2.1764   -1.2161 C   0  0  0  0  0  0  0  0  0  0  0  0
   -6.3477    0.6936   -0.7075 O   0  0  0  0  0  0  0  0  0  0  0  0
   -7.5794    0.3446   -0.1440 C   0  0  0  0  0  0  0  0  0  0  0  0
   -7.9970    0.8981    0.9082 O   0  0  0  0  0  0  0  0  0  0  0  0
   -3.4341   -0.5897   -1.5904 C   0  0  0  0  0  0  0  0  0  0  0  0
    0.7611   -2.6373   -0.8293 O   0  0  0  0  0  0  0  0  0  0  0  0
    0.3448   -3.9512   -0.5868 C   0  0  0  0  0  0  0  0  0  0  0  0
   -0.0682   -4.3058    0.5497 O   0  0  0  0  0  0  0  0  0  0  0  0
    1.7618   -0.3089   -1.8520 C   0  0  0  0  0  0  0  0  0  0  0  0
    4.3356   -3.4536    1.3360 H   0  0  0  0  0  0  0  0  0  0  0  0
    2.7506   -3.2734    0.5972 H   0  0  0  0  0  0  0  0  0  0  0  0
    4.2028   -2.7434   -0.3121 H   0  0  0  0  0  0  0  0  0  0  0  0
    2.8860   -1.4018    2.1449 H   0  0  0  0  0  0  0  0  0  0  0  0
    4.9060   -0.0834    2.5755 H   0  0  0  0  0  0  0  0  0  0  0  0
    5.2310   -1.8058    2.7222 H   0  0  0  0  0  0  0  0  0  0  0  0
    6.3032   -1.8337    0.4342 H   0  0  0  0  0  0  0  0  0  0  0  0
    5.9789   -0.0748    0.2641 H   0  0  0  0  0  0  0  0  0  0  0  0
    3.8410   -0.4170   -0.5934 H   0  0  0  0  0  0  0  0  0  0  0  0
    4.2537    1.6220    0.3428 H   0  0  0  0  0  0  0  0  0  0  0  0
    3.3353    1.2255    1.8497 H   0  0  0  0  0  0  0  0  0  0  0  0
    1.8734    2.7927    0.9787 H   0  0  0  0  0  0  0  0  0  0  0  0
    2.2610    2.3638   -0.7392 H   0  0  0  0  0  0  0  0  0  0  0  0
    0.8949    0.6852    1.3987 H   0  0  0  0  0  0  0  0  0  0  0  0
    1.0395   -1.9803    1.1156 H   0  0  0  0  0  0  0  0  0  0  0  0
   -1.4703   -2.0516    0.1968 H   0  0  0  0  0  0  0  0  0  0  0  0
   -0.9244   -0.9320    1.4648 H   0  0  0  0  0  0  0  0  0  0  0  0
   -1.0112   -0.2763   -1.4996 H   0  0  0  0  0  0  0  0  0  0  0  0
   -0.8579    1.7832    0.7266 H   0  0  0  0  0  0  0  0  0  0  0  0
   -0.2083    3.2872   -0.9833 H   0  0  0  0  0  0  0  0  0  0  0  0
    0.1670    1.9943   -2.1625 H   0  0  0  0  0  0  0  0  0  0  0  0
   -2.1917    3.4243   -2.1735 H   0  0  0  0  0  0  0  0  0  0  0  0
   -2.0464    1.7686   -2.8357 H   0  0  0  0  0  0  0  0  0  0  0  0
   -2.8104    2.4795    0.0354 H   0  0  0  0  0  0  0  0  0  0  0  0
   -2.8261    0.2551    1.6855 H   0  0  0  0  0  0  0  0  0  0  0  0
   -3.8719   -0.9593    0.9189 H   0  0  0  0  0  0  0  0  0  0  0  0
   -5.4846    0.5049    1.7545 H   0  0  0  0  0  0  0  0  0  0  0  0
   -4.3848    1.8928    1.7415 H   0  0  0  0  0  0  0  0  0  0  0  0
   -6.0515    2.5141    0.2176 H   0  0  0  0  0  0  0  0  0  0  0  0
   -4.7245    1.7597   -2.2147 H   0  0  0  0  0  0  0  0  0  0  0  0
   -4.5856    3.2799   -1.3009 H   0  0  0  0  0  0  0  0  0  0  0  0
   -8.1872   -0.4088   -0.6255 H   0  0  0  0  0  0  0  0  0  0  0  0
   -3.1394   -1.6452   -1.4123 H   0  0  0  0  0  0  0  0  0  0  0  0
   -3.0945   -0.3121   -2.6099 H   0  0  0  0  0  0  0  0  0  0  0  0
   -4.5363   -0.5775   -1.5867 H   0  0  0  0  0  0  0  0  0  0  0  0
    0.3889   -4.6767   -1.3870 H   0  0  0  0  0  0  0  0  0  0  0  0
    2.3572   -1.1740   -2.2159 H   0  0  0  0  0  0  0  0  0  0  0  0
    2.2958    0.6060   -2.1808 H   0  0  0  0  0  0  0  0  0  0  0  0
    0.8152   -0.3494   -2.4068 H   0  0  0  0  0  0  0  0  0  0  0  0
  1  2  1  0
  2  3  1  0
  3  4  1  0
  4  5  1  0
  5  6  2  0
  5  7  1  0
  2  8  1  0
  8  9  1  0
  9 10  1  0
 10 11  1  0
 11 12  1  0
 12 13  1  0
 13 14  1  0
 14 15  1  0
 15 16  1  0
 16 17  1  0
 17 18  1  0
 18 19  1  0
 19 20  1  0
 20 21  1  0
 21 22  1  0
 22 23  1  0
 23 24  1  0
 23 25  1  0
 25 26  1  0
 26 27  2  0
 20 28  1  6
 13 29  1  0
 29 30  1  0
 30 31  2  0
 12 32  1  6
 12  8  1  0
 16 11  1  0
 20 15  1  0
 24 19  1  0
  1 33  1  0
  1 34  1  0
  1 35  1  0
  2 36  1  1
  3 37  1  0
  3 38  1  0
  4 39  1  0
  4 40  1  0
  8 41  1  6
  9 42  1  0
  9 43  1  0
 10 44  1  0
 10 45  1  0
 11 46  1  1
 13 47  1  1
 14 48  1  0
 14 49  1  0
 15 50  1  6
 16 51  1  1
 17 52  1  0
 17 53  1  0
 18 54  1  0
 18 55  1  0
 19 56  1  1
 21 57  1  0
 21 58  1  0
 22 59  1  0
 22 60  1  0
 23 61  1  1
 24 62  1  0
 24 63  1  0
 26 64  1  0
 28 65  1  0
 28 66  1  0
 28 67  1  0
 30 68  1  0
 32 69  1  0
 32 70  1  0
 32 71  1  0
M  CHG  1   7  -1
M  END
$$$$
