
     RDKit          3D

 48 52  0  0  0  0  0  0  0  0999 V2000
   -8.3871    1.8811   -1.3229 C   0  0  0  0  0  0  0  0  0  0  0  0
   -9.2177    0.9510   -0.6660 C   0  0  0  0  0  0  0  0  0  0  0  0
   -8.6574   -0.0717    0.1162 C   0  0  0  0  0  0  0  0  0  0  0  0
   -7.2700   -0.1325    0.2178 C   0  0  0  0  0  0  0  0  0  0  0  0
   -6.4435    0.7755   -0.4229 C   0  0  0  0  0  0  0  0  0  0  0  0
   -6.9888    1.7965   -1.2032 C   0  0  0  0  0  0  0  0  0  0  0  0
   -5.1135    0.5858   -0.2280 N   0  0  0  0  0  0  0  0  0  0  0  0
   -4.8766   -0.4834    0.5756 C   0  0  0  0  0  0  0  0  0  0  0  0
   -6.3247   -1.2252    1.0675 S   0  0  0  0  0  0  0  0  0  0  0  0
   -3.5144   -0.9236    0.9572 C   0  0  0  0  0  0  0  0  0  0  0  0
   -3.3216   -2.0379    1.7925 C   0  0  0  0  0  0  0  0  0  0  0  0
   -2.0330   -2.4371    2.1549 C   0  0  0  0  0  0  0  0  0  0  0  0
   -0.9172   -1.7409    1.6818 C   0  0  0  0  0  0  0  0  0  0  0  0
   -1.0936   -0.6395    0.8235 C   0  0  0  0  0  0  0  0  0  0  0  0
   -2.3888   -0.2257    0.4845 C   0  0  0  0  0  0  0  0  0  0  0  0
    0.0296    0.0996    0.3244 N   0  0  0  0  0  0  0  0  0  0  0  0
    1.0283   -0.4588   -0.5449 C   0  0  0  0  0  0  0  0  0  0  0  0
    0.7600   -1.8968   -1.3040 S   0  0  0  0  0  0  0  0  0  0  0  0
    2.2777    0.2375   -0.6940 N   0  0  0  0  0  0  0  0  0  0  0  0
    3.2626   -0.0334   -1.7052 C   0  0  0  0  0  0  0  0  0  0  0  0
    2.9266   -0.5663   -2.7974 O   0  0  0  0  0  0  0  0  0  0  0  0
    4.6628    0.4081   -1.5164 C   0  0  0  0  0  0  0  0  0  0  0  0
    5.2600    1.1506   -2.5459 C   0  0  0  0  0  0  0  0  0  0  0  0
    6.5489    1.6568   -2.4035 C   0  0  0  0  0  0  0  0  0  0  0  0
    7.2699    1.4293   -1.2340 C   0  0  0  0  0  0  0  0  0  0  0  0
    6.7176    0.6656   -0.1892 C   0  0  0  0  0  0  0  0  0  0  0  0
    5.4032    0.1325   -0.3341 C   0  0  0  0  0  0  0  0  0  0  0  0
    4.8873   -0.6895    0.6907 C   0  0  0  0  0  0  0  0  0  0  0  0
    5.6266   -0.9355    1.8465 C   0  0  0  0  0  0  0  0  0  0  0  0
    6.8952   -0.3836    2.0007 C   0  0  0  0  0  0  0  0  0  0  0  0
    7.4509    0.4087    0.9932 C   0  0  0  0  0  0  0  0  0  0  0  0
    9.0722    1.0488    1.2590 Cl  0  0  0  0  0  0  0  0  0  0  0  0
    0.6819   -2.2292    2.2306 Cl  0  0  0  0  0  0  0  0  0  0  0  0
   -8.8285    2.6658   -1.9236 H   0  0  0  0  0  0  0  0  0  0  0  0
  -10.2929    1.0251   -0.7647 H   0  0  0  0  0  0  0  0  0  0  0  0
   -9.2863   -0.7908    0.6247 H   0  0  0  0  0  0  0  0  0  0  0  0
   -6.3497    2.5101   -1.7072 H   0  0  0  0  0  0  0  0  0  0  0  0
   -4.1634   -2.5984    2.1771 H   0  0  0  0  0  0  0  0  0  0  0  0
   -1.9034   -3.2851    2.8155 H   0  0  0  0  0  0  0  0  0  0  0  0
   -2.5102    0.6355   -0.1613 H   0  0  0  0  0  0  0  0  0  0  0  0
    0.0654    1.1250    0.5207 H   0  0  0  0  0  0  0  0  0  0  0  0
    2.4955    0.9856    0.0024 H   0  0  0  0  0  0  0  0  0  0  0  0
    4.7136    1.3632   -3.4571 H   0  0  0  0  0  0  0  0  0  0  0  0
    6.9891    2.2393   -3.2027 H   0  0  0  0  0  0  0  0  0  0  0  0
    8.2651    1.8470   -1.1634 H   0  0  0  0  0  0  0  0  0  0  0  0
    3.9225   -1.1684    0.6038 H   0  0  0  0  0  0  0  0  0  0  0  0
    5.2150   -1.5642    2.6257 H   0  0  0  0  0  0  0  0  0  0  0  0
    7.4551   -0.5845    2.9054 H   0  0  0  0  0  0  0  0  0  0  0  0
  1  2  2  0
  2  3  1  0
  3  4  2  0
  4  5  1  0
  5  6  2  0
  5  7  1  0
  7  8  2  0
  8  9  1  0
  8 10  1  0
 10 11  2  0
 11 12  1  0
 12 13  2  0
 13 14  1  0
 14 15  2  0
 14 16  1  0
 16 17  1  0
 17 18  2  0
 17 19  1  0
 19 20  1  0
 20 21  2  0
 20 22  1  0
 22 23  2  0
 23 24  1  0
 24 25  2  0
 25 26  1  0
 26 27  2  0
 27 28  1  0
 28 29  2  0
 29 30  1  0
 30 31  2  0
 31 32  1  0
 13 33  1  0
  6  1  1  0
  9  4  1  0
 15 10  1  0
 27 22  1  0
 31 26  1  0
  1 34  1  0
  2 35  1  0
  3 36  1  0
  6 37  1  0
 11 38  1  0
 12 39  1  0
 15 40  1  0
 16 41  1  0
 19 42  1  0
 23 43  1  0
 24 44  1  0
 25 45  1  0
 28 46  1  0
 29 47  1  0
 30 48  1  0
M  END
$$$$
