
     RDKit          3D

 48 52  0  0  0  0  0  0  0  0999 V2000
    7.9987    1.3506   -0.6753 C   0  0  0  0  0  0  0  0  0  0  0  0
    8.0714    1.0320   -2.0465 C   0  0  0  0  0  0  0  0  0  0  0  0
    7.0169    0.3484   -2.6727 C   0  0  0  0  0  0  0  0  0  0  0  0
    5.9117    0.0013   -1.9001 C   0  0  0  0  0  0  0  0  0  0  0  0
    5.8286    0.3087   -0.5522 C   0  0  0  0  0  0  0  0  0  0  0  0
    6.8706    0.9881    0.0813 C   0  0  0  0  0  0  0  0  0  0  0  0
    4.6889   -0.0954    0.0649 N   0  0  0  0  0  0  0  0  0  0  0  0
    3.8551   -0.7312   -0.7984 C   0  0  0  0  0  0  0  0  0  0  0  0
    4.5180   -0.8074   -2.3618 S   0  0  0  0  0  0  0  0  0  0  0  0
    2.5378   -1.2782   -0.3975 C   0  0  0  0  0  0  0  0  0  0  0  0
    1.7108   -1.9282   -1.3294 C   0  0  0  0  0  0  0  0  0  0  0  0
    0.4759   -2.4493   -0.9379 C   0  0  0  0  0  0  0  0  0  0  0  0
    0.0387   -2.3210    0.3836 C   0  0  0  0  0  0  0  0  0  0  0  0
    0.8443   -1.6470    1.3242 C   0  0  0  0  0  0  0  0  0  0  0  0
    2.0954   -1.1510    0.9310 C   0  0  0  0  0  0  0  0  0  0  0  0
    0.4295   -1.4810    2.6881 N   0  0  0  0  0  0  0  0  0  0  0  0
   -0.8148   -0.8674    3.0568 C   0  0  0  0  0  0  0  0  0  0  0  0
   -1.2560   -0.8660    4.6374 S   0  0  0  0  0  0  0  0  0  0  0  0
   -1.5464   -0.0862    2.0965 N   0  0  0  0  0  0  0  0  0  0  0  0
   -2.9781    0.0311    2.0811 C   0  0  0  0  0  0  0  0  0  0  0  0
   -3.6825   -0.6247    2.8959 O   0  0  0  0  0  0  0  0  0  0  0  0
   -3.6332    0.9284    1.1039 C   0  0  0  0  0  0  0  0  0  0  0  0
   -3.1632    2.2464    1.0107 C   0  0  0  0  0  0  0  0  0  0  0  0
   -3.7688    3.1594    0.1521 C   0  0  0  0  0  0  0  0  0  0  0  0
   -4.8527    2.7757   -0.6334 C   0  0  0  0  0  0  0  0  0  0  0  0
   -5.3397    1.4564   -0.5865 C   0  0  0  0  0  0  0  0  0  0  0  0
   -4.7174    0.5134    0.2833 C   0  0  0  0  0  0  0  0  0  0  0  0
   -5.1752   -0.8216    0.2768 C   0  0  0  0  0  0  0  0  0  0  0  0
   -6.2435   -1.2040   -0.5329 C   0  0  0  0  0  0  0  0  0  0  0  0
   -6.8693   -0.2736   -1.3579 C   0  0  0  0  0  0  0  0  0  0  0  0
   -6.4260    1.0505   -1.3971 C   0  0  0  0  0  0  0  0  0  0  0  0
   -7.2609    2.1590   -2.4848 Cl  0  0  0  0  0  0  0  0  0  0  0  0
   -1.4825   -3.0804    0.8384 Cl  0  0  0  0  0  0  0  0  0  0  0  0
    8.8166    1.8778   -0.2017 H   0  0  0  0  0  0  0  0  0  0  0  0
    8.9444    1.3157   -2.6198 H   0  0  0  0  0  0  0  0  0  0  0  0
    7.0629    0.0991   -3.7248 H   0  0  0  0  0  0  0  0  0  0  0  0
    6.8133    1.2322    1.1344 H   0  0  0  0  0  0  0  0  0  0  0  0
    2.0180   -2.0464   -2.3601 H   0  0  0  0  0  0  0  0  0  0  0  0
   -0.1381   -2.9664   -1.6645 H   0  0  0  0  0  0  0  0  0  0  0  0
    2.7133   -0.6495    1.6660 H   0  0  0  0  0  0  0  0  0  0  0  0
    1.1229   -1.6941    3.4407 H   0  0  0  0  0  0  0  0  0  0  0  0
   -1.0165    0.3286    1.2973 H   0  0  0  0  0  0  0  0  0  0  0  0
   -2.3352    2.5783    1.6257 H   0  0  0  0  0  0  0  0  0  0  0  0
   -3.4001    4.1760    0.1014 H   0  0  0  0  0  0  0  0  0  0  0  0
   -5.2958    3.5188   -1.2826 H   0  0  0  0  0  0  0  0  0  0  0  0
   -4.7043   -1.5871    0.8769 H   0  0  0  0  0  0  0  0  0  0  0  0
   -6.5852   -2.2311   -0.5246 H   0  0  0  0  0  0  0  0  0  0  0  0
   -7.6982   -0.5881   -1.9795 H   0  0  0  0  0  0  0  0  0  0  0  0
  1  2  2  0
  2  3  1  0
  3  4  2  0
  4  5  1  0
  5  6  2  0
  5  7  1  0
  7  8  2  0
  8  9  1  0
  8 10  1  0
 10 11  2  0
 11 12  1  0
 12 13  2  0
 13 14  1  0
 14 15  2  0
 14 16  1  0
 16 17  1  0
 17 18  2  0
 17 19  1  0
 19 20  1  0
 20 21  2  0
 20 22  1  0
 22 23  2  0
 23 24  1  0
 24 25  2  0
 25 26  1  0
 26 27  2  0
 27 28  1  0
 28 29  2  0
 29 30  1  0
 30 31  2  0
 31 32  1  0
 13 33  1  0
  6  1  1  0
  9  4  1  0
 15 10  1  0
 27 22  1  0
 31 26  1  0
  1 34  1  0
  2 35  1  0
  3 36  1  0
  6 37  1  0
 11 38  1  0
 12 39  1  0
 15 40  1  0
 16 41  1  0
 19 42  1  0
 23 43  1  0
 24 44  1  0
 25 45  1  0
 28 46  1  0
 29 47  1  0
 30 48  1  0
M  END
$$$$
