
     RDKit          3D

 48 52  0  0  0  0  0  0  0  0999 V2000
    8.2633   -2.1608   -0.9104 C   0  0  0  0  0  0  0  0  0  0  0  0
    7.4607   -3.3196   -0.9075 C   0  0  0  0  0  0  0  0  0  0  0  0
    6.0769   -3.2233   -0.6900 C   0  0  0  0  0  0  0  0  0  0  0  0
    5.5337   -1.9585   -0.4802 C   0  0  0  0  0  0  0  0  0  0  0  0
    6.3118   -0.8127   -0.4807 C   0  0  0  0  0  0  0  0  0  0  0  0
    7.6886   -0.8958   -0.6957 C   0  0  0  0  0  0  0  0  0  0  0  0
    5.6379    0.3453   -0.2618 N   0  0  0  0  0  0  0  0  0  0  0  0
    4.3098    0.1214   -0.0856 C   0  0  0  0  0  0  0  0  0  0  0  0
    3.9373   -1.5334   -0.1970 S   0  0  0  0  0  0  0  0  0  0  0  0
    3.3334    1.2049    0.1742 C   0  0  0  0  0  0  0  0  0  0  0  0
    3.7671    2.5386    0.2638 C   0  0  0  0  0  0  0  0  0  0  0  0
    2.8520    3.5672    0.4979 C   0  0  0  0  0  0  0  0  0  0  0  0
    1.4929    3.2818    0.6539 C   0  0  0  0  0  0  0  0  0  0  0  0
    1.0436    1.9520    0.5902 C   0  0  0  0  0  0  0  0  0  0  0  0
    1.9641    0.9233    0.3299 C   0  0  0  0  0  0  0  0  0  0  0  0
   -0.3566    1.6573    0.7142 N   0  0  0  0  0  0  0  0  0  0  0  0
   -0.9043    0.6889    1.6314 C   0  0  0  0  0  0  0  0  0  0  0  0
    0.0474   -0.0744    2.7315 S   0  0  0  0  0  0  0  0  0  0  0  0
   -2.2987    0.3539    1.5885 N   0  0  0  0  0  0  0  0  0  0  0  0
   -3.3301    1.2871    1.2352 C   0  0  0  0  0  0  0  0  0  0  0  0
   -3.1227    2.5274    1.3313 O   0  0  0  0  0  0  0  0  0  0  0  0
   -4.6797    0.8037    0.8665 C   0  0  0  0  0  0  0  0  0  0  0  0
   -5.7805    1.3689    1.5273 C   0  0  0  0  0  0  0  0  0  0  0  0
   -7.0717    0.9113    1.2800 C   0  0  0  0  0  0  0  0  0  0  0  0
   -7.2921   -0.1155    0.3656 C   0  0  0  0  0  0  0  0  0  0  0  0
   -6.2180   -0.6897   -0.3390 C   0  0  0  0  0  0  0  0  0  0  0  0
   -4.8944   -0.2166   -0.1003 C   0  0  0  0  0  0  0  0  0  0  0  0
   -3.8344   -0.7516   -0.8632 C   0  0  0  0  0  0  0  0  0  0  0  0
   -4.0673   -1.7595   -1.7974 C   0  0  0  0  0  0  0  0  0  0  0  0
   -5.3558   -2.2448   -2.0022 C   0  0  0  0  0  0  0  0  0  0  0  0
   -6.4340   -1.7168   -1.2879 C   0  0  0  0  0  0  0  0  0  0  0  0
   -8.0360   -2.3717   -1.6253 Cl  0  0  0  0  0  0  0  0  0  0  0  0
    0.3728    4.6028    0.9587 Cl  0  0  0  0  0  0  0  0  0  0  0  0
    9.3290   -2.2453   -1.0788 H   0  0  0  0  0  0  0  0  0  0  0  0
    7.9131   -4.2885   -1.0736 H   0  0  0  0  0  0  0  0  0  0  0  0
    5.4519   -4.1068   -0.6857 H   0  0  0  0  0  0  0  0  0  0  0  0
    8.3037   -0.0050   -0.6976 H   0  0  0  0  0  0  0  0  0  0  0  0
    4.8140    2.7894    0.1482 H   0  0  0  0  0  0  0  0  0  0  0  0
    3.2025    4.5898    0.5586 H   0  0  0  0  0  0  0  0  0  0  0  0
    1.6009   -0.0916    0.2359 H   0  0  0  0  0  0  0  0  0  0  0  0
   -1.0052    2.1885    0.0931 H   0  0  0  0  0  0  0  0  0  0  0  0
   -2.5877   -0.6032    1.8937 H   0  0  0  0  0  0  0  0  0  0  0  0
   -5.6366    2.1529    2.2613 H   0  0  0  0  0  0  0  0  0  0  0  0
   -7.9081    1.3498    1.8091 H   0  0  0  0  0  0  0  0  0  0  0  0
   -8.3106   -0.4444    0.2093 H   0  0  0  0  0  0  0  0  0  0  0  0
   -2.8226   -0.3852   -0.7654 H   0  0  0  0  0  0  0  0  0  0  0  0
   -3.2431   -2.1629   -2.3718 H   0  0  0  0  0  0  0  0  0  0  0  0
   -5.5184   -3.0285   -2.7314 H   0  0  0  0  0  0  0  0  0  0  0  0
  1  2  2  0
  2  3  1  0
  3  4  2  0
  4  5  1  0
  5  6  2  0
  5  7  1  0
  7  8  2  0
  8  9  1  0
  8 10  1  0
 10 11  2  0
 11 12  1  0
 12 13  2  0
 13 14  1  0
 14 15  2  0
 14 16  1  0
 16 17  1  0
 17 18  2  0
 17 19  1  0
 19 20  1  0
 20 21  2  0
 20 22  1  0
 22 23  2  0
 23 24  1  0
 24 25  2  0
 25 26  1  0
 26 27  2  0
 27 28  1  0
 28 29  2  0
 29 30  1  0
 30 31  2  0
 31 32  1  0
 13 33  1  0
  6  1  1  0
  9  4  1  0
 15 10  1  0
 27 22  1  0
 31 26  1  0
  1 34  1  0
  2 35  1  0
  3 36  1  0
  6 37  1  0
 11 38  1  0
 12 39  1  0
 15 40  1  0
 16 41  1  0
 19 42  1  0
 23 43  1  0
 24 44  1  0
 25 45  1  0
 28 46  1  0
 29 47  1  0
 30 48  1  0
M  END
$$$$
