
     RDKit          3D

 48 52  0  0  0  0  0  0  0  0999 V2000
    6.8183   -0.8314   -1.8555 C   0  0  0  0  0  0  0  0  0  0  0  0
    6.8223   -2.2228   -1.6301 C   0  0  0  0  0  0  0  0  0  0  0  0
    5.8120   -2.8192   -0.8586 C   0  0  0  0  0  0  0  0  0  0  0  0
    4.8197   -1.9970   -0.3313 C   0  0  0  0  0  0  0  0  0  0  0  0
    4.8050   -0.6288   -0.5458 C   0  0  0  0  0  0  0  0  0  0  0  0
    5.8039   -0.0245   -1.3111 C   0  0  0  0  0  0  0  0  0  0  0  0
    3.7732    0.0371    0.0328 N   0  0  0  0  0  0  0  0  0  0  0  0
    2.9573   -0.8074    0.7153 C   0  0  0  0  0  0  0  0  0  0  0  0
    3.5013   -2.4147    0.6157 S   0  0  0  0  0  0  0  0  0  0  0  0
    1.7486   -0.3543    1.4423 C   0  0  0  0  0  0  0  0  0  0  0  0
    0.9323   -1.2692    2.1292 C   0  0  0  0  0  0  0  0  0  0  0  0
   -0.2000   -0.8292    2.8178 C   0  0  0  0  0  0  0  0  0  0  0  0
   -0.5471    0.5247    2.8187 C   0  0  0  0  0  0  0  0  0  0  0  0
    0.2398    1.4486    2.1032 C   0  0  0  0  0  0  0  0  0  0  0  0
    1.3979    1.0071    1.4483 C   0  0  0  0  0  0  0  0  0  0  0  0
   -0.0989    2.8418    2.0556 N   0  0  0  0  0  0  0  0  0  0  0  0
   -1.3841    3.3171    1.6294 C   0  0  0  0  0  0  0  0  0  0  0  0
   -1.9717    4.7077    2.2598 S   0  0  0  0  0  0  0  0  0  0  0  0
   -2.1761    2.5844    0.6826 N   0  0  0  0  0  0  0  0  0  0  0  0
   -1.6179    1.9872   -0.4984 C   0  0  0  0  0  0  0  0  0  0  0  0
   -0.4137    2.2004   -0.8064 O   0  0  0  0  0  0  0  0  0  0  0  0
   -2.4734    1.2153   -1.4294 C   0  0  0  0  0  0  0  0  0  0  0  0
   -2.4431    1.5700   -2.7865 C   0  0  0  0  0  0  0  0  0  0  0  0
   -3.2630    0.9278   -3.7100 C   0  0  0  0  0  0  0  0  0  0  0  0
   -4.1255   -0.0860   -3.3012 C   0  0  0  0  0  0  0  0  0  0  0  0
   -4.1663   -0.4911   -1.9545 C   0  0  0  0  0  0  0  0  0  0  0  0
   -3.3221    0.1565   -1.0054 C   0  0  0  0  0  0  0  0  0  0  0  0
   -3.3255   -0.3017    0.3274 C   0  0  0  0  0  0  0  0  0  0  0  0
   -4.1675   -1.3385    0.7245 C   0  0  0  0  0  0  0  0  0  0  0  0
   -5.0147   -1.9473   -0.1971 C   0  0  0  0  0  0  0  0  0  0  0  0
   -5.0197   -1.5381   -1.5329 C   0  0  0  0  0  0  0  0  0  0  0  0
   -6.1072   -2.3759   -2.6394 Cl  0  0  0  0  0  0  0  0  0  0  0  0
   -1.9318    1.0347    3.7779 Cl  0  0  0  0  0  0  0  0  0  0  0  0
    7.6013   -0.3811   -2.4517 H   0  0  0  0  0  0  0  0  0  0  0  0
    7.6078   -2.8349   -2.0539 H   0  0  0  0  0  0  0  0  0  0  0  0
    5.8059   -3.8865   -0.6797 H   0  0  0  0  0  0  0  0  0  0  0  0
    5.7994    1.0442   -1.4835 H   0  0  0  0  0  0  0  0  0  0  0  0
    1.1704   -2.3244    2.1474 H   0  0  0  0  0  0  0  0  0  0  0  0
   -0.8047   -1.5445    3.3608 H   0  0  0  0  0  0  0  0  0  0  0  0
    2.0077    1.7304    0.9207 H   0  0  0  0  0  0  0  0  0  0  0  0
    0.6368    3.5406    2.3052 H   0  0  0  0  0  0  0  0  0  0  0  0
   -3.2168    2.6415    0.7603 H   0  0  0  0  0  0  0  0  0  0  0  0
   -1.7966    2.3688   -3.1302 H   0  0  0  0  0  0  0  0  0  0  0  0
   -3.2355    1.2240   -4.7509 H   0  0  0  0  0  0  0  0  0  0  0  0
   -4.7481   -0.5546   -4.0513 H   0  0  0  0  0  0  0  0  0  0  0  0
   -2.6676    0.1198    1.0686 H   0  0  0  0  0  0  0  0  0  0  0  0
   -4.1588   -1.6756    1.7532 H   0  0  0  0  0  0  0  0  0  0  0  0
   -5.6636   -2.7507    0.1281 H   0  0  0  0  0  0  0  0  0  0  0  0
  1  2  2  0
  2  3  1  0
  3  4  2  0
  4  5  1  0
  5  6  2  0
  5  7  1  0
  7  8  2  0
  8  9  1  0
  8 10  1  0
 10 11  2  0
 11 12  1  0
 12 13  2  0
 13 14  1  0
 14 15  2  0
 14 16  1  0
 16 17  1  0
 17 18  2  0
 17 19  1  0
 19 20  1  0
 20 21  2  0
 20 22  1  0
 22 23  2  0
 23 24  1  0
 24 25  2  0
 25 26  1  0
 26 27  2  0
 27 28  1  0
 28 29  2  0
 29 30  1  0
 30 31  2  0
 31 32  1  0
 13 33  1  0
  6  1  1  0
  9  4  1  0
 15 10  1  0
 27 22  1  0
 31 26  1  0
  1 34  1  0
  2 35  1  0
  3 36  1  0
  6 37  1  0
 11 38  1  0
 12 39  1  0
 15 40  1  0
 16 41  1  0
 19 42  1  0
 23 43  1  0
 24 44  1  0
 25 45  1  0
 28 46  1  0
 29 47  1  0
 30 48  1  0
M  END
$$$$
