
     RDKit          3D

 48 52  0  0  0  0  0  0  0  0999 V2000
    8.5639   -1.1140   -1.5302 C   0  0  0  0  0  0  0  0  0  0  0  0
    7.8314   -1.7483   -2.5538 C   0  0  0  0  0  0  0  0  0  0  0  0
    6.4299   -1.6668   -2.5780 C   0  0  0  0  0  0  0  0  0  0  0  0
    5.7986   -0.9463   -1.5674 C   0  0  0  0  0  0  0  0  0  0  0  0
    6.5073   -0.3188   -0.5564 C   0  0  0  0  0  0  0  0  0  0  0  0
    7.9009   -0.3927   -0.5218 C   0  0  0  0  0  0  0  0  0  0  0  0
    5.7513    0.3446    0.3554 N   0  0  0  0  0  0  0  0  0  0  0  0
    4.4271    0.2451    0.0696 C   0  0  0  0  0  0  0  0  0  0  0  0
    4.1610   -0.6758   -1.3344 S   0  0  0  0  0  0  0  0  0  0  0  0
    3.3707    0.8753    0.8957 C   0  0  0  0  0  0  0  0  0  0  0  0
    3.7184    1.6303    2.0277 C   0  0  0  0  0  0  0  0  0  0  0  0
    2.7297    2.2210    2.8163 C   0  0  0  0  0  0  0  0  0  0  0  0
    1.3794    2.0734    2.4873 C   0  0  0  0  0  0  0  0  0  0  0  0
    1.0097    1.3339    1.3480 C   0  0  0  0  0  0  0  0  0  0  0  0
    2.0110    0.7272    0.5683 C   0  0  0  0  0  0  0  0  0  0  0  0
   -0.3791    1.1541    1.0166 N   0  0  0  0  0  0  0  0  0  0  0  0
   -0.8781    1.0875   -0.3301 C   0  0  0  0  0  0  0  0  0  0  0  0
   -0.2133    2.0292   -1.4991 S   0  0  0  0  0  0  0  0  0  0  0  0
   -2.1125    0.4118   -0.6097 N   0  0  0  0  0  0  0  0  0  0  0  0
   -2.6165   -0.6707    0.1875 C   0  0  0  0  0  0  0  0  0  0  0  0
   -1.8542   -1.2795    0.9869 O   0  0  0  0  0  0  0  0  0  0  0  0
   -4.0066   -1.1459    0.0087 C   0  0  0  0  0  0  0  0  0  0  0  0
   -4.2065   -2.5175   -0.2060 C   0  0  0  0  0  0  0  0  0  0  0  0
   -5.4808   -3.0219   -0.4496 C   0  0  0  0  0  0  0  0  0  0  0  0
   -6.5820   -2.1699   -0.4790 C   0  0  0  0  0  0  0  0  0  0  0  0
   -6.4277   -0.7918   -0.2403 C   0  0  0  0  0  0  0  0  0  0  0  0
   -5.1269   -0.2707    0.0225 C   0  0  0  0  0  0  0  0  0  0  0  0
   -4.9937    1.1005    0.3282 C   0  0  0  0  0  0  0  0  0  0  0  0
   -6.1050    1.9420    0.3252 C   0  0  0  0  0  0  0  0  0  0  0  0
   -7.3689    1.4369    0.0330 C   0  0  0  0  0  0  0  0  0  0  0  0
   -7.5430    0.0787   -0.2438 C   0  0  0  0  0  0  0  0  0  0  0  0
   -9.1803   -0.4825   -0.5806 Cl  0  0  0  0  0  0  0  0  0  0  0  0
    0.1748    2.8587    3.5009 Cl  0  0  0  0  0  0  0  0  0  0  0  0
    9.6439   -1.1826   -1.5202 H   0  0  0  0  0  0  0  0  0  0  0  0
    8.3516   -2.3010   -3.3253 H   0  0  0  0  0  0  0  0  0  0  0  0
    5.8581   -2.1501   -3.3595 H   0  0  0  0  0  0  0  0  0  0  0  0
    8.4622    0.0950    0.2649 H   0  0  0  0  0  0  0  0  0  0  0  0
    4.7560    1.7636    2.3073 H   0  0  0  0  0  0  0  0  0  0  0  0
    3.0164    2.7983    3.6862 H   0  0  0  0  0  0  0  0  0  0  0  0
    1.7214    0.1261   -0.2832 H   0  0  0  0  0  0  0  0  0  0  0  0
   -1.0730    1.0857    1.7941 H   0  0  0  0  0  0  0  0  0  0  0  0
   -2.6476    0.6823   -1.4661 H   0  0  0  0  0  0  0  0  0  0  0  0
   -3.3650   -3.2001   -0.2115 H   0  0  0  0  0  0  0  0  0  0  0  0
   -5.6150   -4.0814   -0.6267 H   0  0  0  0  0  0  0  0  0  0  0  0
   -7.5527   -2.6035   -0.6782 H   0  0  0  0  0  0  0  0  0  0  0  0
   -4.0395    1.5331    0.5933 H   0  0  0  0  0  0  0  0  0  0  0  0
   -5.9861    2.9926    0.5573 H   0  0  0  0  0  0  0  0  0  0  0  0
   -8.2209    2.1051    0.0343 H   0  0  0  0  0  0  0  0  0  0  0  0
  1  2  2  0
  2  3  1  0
  3  4  2  0
  4  5  1  0
  5  6  2  0
  5  7  1  0
  7  8  2  0
  8  9  1  0
  8 10  1  0
 10 11  2  0
 11 12  1  0
 12 13  2  0
 13 14  1  0
 14 15  2  0
 14 16  1  0
 16 17  1  0
 17 18  2  0
 17 19  1  0
 19 20  1  0
 20 21  2  0
 20 22  1  0
 22 23  2  0
 23 24  1  0
 24 25  2  0
 25 26  1  0
 26 27  2  0
 27 28  1  0
 28 29  2  0
 29 30  1  0
 30 31  2  0
 31 32  1  0
 13 33  1  0
  6  1  1  0
  9  4  1  0
 15 10  1  0
 27 22  1  0
 31 26  1  0
  1 34  1  0
  2 35  1  0
  3 36  1  0
  6 37  1  0
 11 38  1  0
 12 39  1  0
 15 40  1  0
 16 41  1  0
 19 42  1  0
 23 43  1  0
 24 44  1  0
 25 45  1  0
 28 46  1  0
 29 47  1  0
 30 48  1  0
M  END
$$$$
