
     RDKit          3D

 48 52  0  0  0  0  0  0  0  0999 V2000
    9.4143    0.0201   -0.2627 C   0  0  0  0  0  0  0  0  0  0  0  0
    9.1434   -1.0679   -1.1169 C   0  0  0  0  0  0  0  0  0  0  0  0
    7.8180   -1.4226   -1.4151 C   0  0  0  0  0  0  0  0  0  0  0  0
    6.7948   -0.6704   -0.8440 C   0  0  0  0  0  0  0  0  0  0  0  0
    7.0482    0.4007   -0.0033 C   0  0  0  0  0  0  0  0  0  0  0  0
    8.3617    0.7628    0.3006 C   0  0  0  0  0  0  0  0  0  0  0  0
    5.9473    1.0351    0.4747 N   0  0  0  0  0  0  0  0  0  0  0  0
    4.8049    0.4650    0.0111 C   0  0  0  0  0  0  0  0  0  0  0  0
    5.1370   -0.8514   -1.0118 S   0  0  0  0  0  0  0  0  0  0  0  0
    3.4529    0.9524    0.3709 C   0  0  0  0  0  0  0  0  0  0  0  0
    3.3065    2.0543    1.2309 C   0  0  0  0  0  0  0  0  0  0  0  0
    2.0362    2.5280    1.5669 C   0  0  0  0  0  0  0  0  0  0  0  0
    0.8923    1.9042    1.0612 C   0  0  0  0  0  0  0  0  0  0  0  0
    1.0224    0.7834    0.2197 C   0  0  0  0  0  0  0  0  0  0  0  0
    2.2990    0.3281   -0.1367 C   0  0  0  0  0  0  0  0  0  0  0  0
   -0.1310    0.1236   -0.3200 N   0  0  0  0  0  0  0  0  0  0  0  0
   -1.1100   -0.5547    0.4839 C   0  0  0  0  0  0  0  0  0  0  0  0
   -0.7887   -0.9117    2.0604 S   0  0  0  0  0  0  0  0  0  0  0  0
   -2.3859   -0.8652   -0.1023 N   0  0  0  0  0  0  0  0  0  0  0  0
   -3.3627   -1.7566    0.4612 C   0  0  0  0  0  0  0  0  0  0  0  0
   -3.0095   -2.6743    1.2505 O   0  0  0  0  0  0  0  0  0  0  0  0
   -4.7783   -1.6725    0.0369 C   0  0  0  0  0  0  0  0  0  0  0  0
   -5.4067   -2.8532   -0.3857 C   0  0  0  0  0  0  0  0  0  0  0  0
   -6.7137   -2.8323   -0.8643 C   0  0  0  0  0  0  0  0  0  0  0  0
   -7.4220   -1.6350   -0.9270 C   0  0  0  0  0  0  0  0  0  0  0  0
   -6.8375   -0.4332   -0.4863 C   0  0  0  0  0  0  0  0  0  0  0  0
   -5.5040   -0.4498    0.0179 C   0  0  0  0  0  0  0  0  0  0  0  0
   -4.9538    0.7485    0.5215 C   0  0  0  0  0  0  0  0  0  0  0  0
   -5.6796    1.9377    0.4808 C   0  0  0  0  0  0  0  0  0  0  0  0
   -6.9681    1.9577   -0.0455 C   0  0  0  0  0  0  0  0  0  0  0  0
   -7.5569    0.7845   -0.5235 C   0  0  0  0  0  0  0  0  0  0  0  0
   -9.2009    0.8935   -1.1515 Cl  0  0  0  0  0  0  0  0  0  0  0  0
   -0.6843    2.5850    1.4450 Cl  0  0  0  0  0  0  0  0  0  0  0  0
   10.4393    0.2858   -0.0388 H   0  0  0  0  0  0  0  0  0  0  0  0
    9.9610   -1.6330   -1.5451 H   0  0  0  0  0  0  0  0  0  0  0  0
    7.5993   -2.2562   -2.0697 H   0  0  0  0  0  0  0  0  0  0  0  0
    8.5683    1.5986    0.9567 H   0  0  0  0  0  0  0  0  0  0  0  0
    4.1742    2.5586    1.6374 H   0  0  0  0  0  0  0  0  0  0  0  0
    1.9427    3.3906    2.2146 H   0  0  0  0  0  0  0  0  0  0  0  0
    2.3799   -0.5231   -0.8004 H   0  0  0  0  0  0  0  0  0  0  0  0
   -0.2063    0.0441   -1.3590 H   0  0  0  0  0  0  0  0  0  0  0  0
   -2.6304   -0.3875   -0.9990 H   0  0  0  0  0  0  0  0  0  0  0  0
   -4.8716   -3.7953   -0.3705 H   0  0  0  0  0  0  0  0  0  0  0  0
   -7.1785   -3.7509   -1.1991 H   0  0  0  0  0  0  0  0  0  0  0  0
   -8.4324   -1.6639   -1.3120 H   0  0  0  0  0  0  0  0  0  0  0  0
   -3.9715    0.7782    0.9708 H   0  0  0  0  0  0  0  0  0  0  0  0
   -5.2418    2.8496    0.8666 H   0  0  0  0  0  0  0  0  0  0  0  0
   -7.5172    2.8906   -0.0699 H   0  0  0  0  0  0  0  0  0  0  0  0
  1  2  2  0
  2  3  1  0
  3  4  2  0
  4  5  1  0
  5  6  2  0
  5  7  1  0
  7  8  2  0
  8  9  1  0
  8 10  1  0
 10 11  2  0
 11 12  1  0
 12 13  2  0
 13 14  1  0
 14 15  2  0
 14 16  1  0
 16 17  1  0
 17 18  2  0
 17 19  1  0
 19 20  1  0
 20 21  2  0
 20 22  1  0
 22 23  2  0
 23 24  1  0
 24 25  2  0
 25 26  1  0
 26 27  2  0
 27 28  1  0
 28 29  2  0
 29 30  1  0
 30 31  2  0
 31 32  1  0
 13 33  1  0
  6  1  1  0
  9  4  1  0
 15 10  1  0
 27 22  1  0
 31 26  1  0
  1 34  1  0
  2 35  1  0
  3 36  1  0
  6 37  1  0
 11 38  1  0
 12 39  1  0
 15 40  1  0
 16 41  1  0
 19 42  1  0
 23 43  1  0
 24 44  1  0
 25 45  1  0
 28 46  1  0
 29 47  1  0
 30 48  1  0
M  END
$$$$
