
     RDKit          3D

 48 52  0  0  0  0  0  0  0  0999 V2000
    8.1933   -2.8154   -0.7221 C   0  0  0  0  0  0  0  0  0  0  0  0
    9.1701   -1.8713   -0.3463 C   0  0  0  0  0  0  0  0  0  0  0  0
    8.7890   -0.6379    0.2059 C   0  0  0  0  0  0  0  0  0  0  0  0
    7.4292   -0.3849    0.3666 C   0  0  0  0  0  0  0  0  0  0  0  0
    6.4601   -1.3044    0.0013 C   0  0  0  0  0  0  0  0  0  0  0  0
    6.8268   -2.5340   -0.5488 C   0  0  0  0  0  0  0  0  0  0  0  0
    5.1787   -0.9130    0.2194 N   0  0  0  0  0  0  0  0  0  0  0  0
    5.1248    0.3302    0.7639 C   0  0  0  0  0  0  0  0  0  0  0  0
    6.6797    0.9789    0.9893 S   0  0  0  0  0  0  0  0  0  0  0  0
    3.8537    1.0097    1.1068 C   0  0  0  0  0  0  0  0  0  0  0  0
    3.8509    2.2980    1.6692 C   0  0  0  0  0  0  0  0  0  0  0  0
    2.6468    2.9241    1.9993 C   0  0  0  0  0  0  0  0  0  0  0  0
    1.4273    2.2832    1.7632 C   0  0  0  0  0  0  0  0  0  0  0  0
    1.4127    1.0037    1.1752 C   0  0  0  0  0  0  0  0  0  0  0  0
    2.6246    0.3682    0.8718 C   0  0  0  0  0  0  0  0  0  0  0  0
    0.1807    0.3134    0.9200 N   0  0  0  0  0  0  0  0  0  0  0  0
   -0.8514    0.8182    0.0562 C   0  0  0  0  0  0  0  0  0  0  0  0
   -0.4934    1.9689   -1.0671 S   0  0  0  0  0  0  0  0  0  0  0  0
   -2.1167    0.1362    0.0215 N   0  0  0  0  0  0  0  0  0  0  0  0
   -3.3464    0.7153   -0.4477 C   0  0  0  0  0  0  0  0  0  0  0  0
   -3.4223    1.9518   -0.6823 O   0  0  0  0  0  0  0  0  0  0  0  0
   -4.5293   -0.1476   -0.6732 C   0  0  0  0  0  0  0  0  0  0  0  0
   -4.3401   -1.3344   -1.3972 C   0  0  0  0  0  0  0  0  0  0  0  0
   -5.4162   -2.1617   -1.7045 C   0  0  0  0  0  0  0  0  0  0  0  0
   -6.7033   -1.8246   -1.2950 C   0  0  0  0  0  0  0  0  0  0  0  0
   -6.9338   -0.6548   -0.5479 C   0  0  0  0  0  0  0  0  0  0  0  0
   -5.8341    0.1916   -0.2187 C   0  0  0  0  0  0  0  0  0  0  0  0
   -6.0701    1.3280    0.5844 C   0  0  0  0  0  0  0  0  0  0  0  0
   -7.3591    1.6441    1.0108 C   0  0  0  0  0  0  0  0  0  0  0  0
   -8.4348    0.8336    0.6599 C   0  0  0  0  0  0  0  0  0  0  0  0
   -8.2355   -0.3148   -0.1098 C   0  0  0  0  0  0  0  0  0  0  0  0
   -9.6493   -1.2971   -0.4911 Cl  0  0  0  0  0  0  0  0  0  0  0  0
   -0.0563    3.0769    2.2784 Cl  0  0  0  0  0  0  0  0  0  0  0  0
    8.4970   -3.7634   -1.1469 H   0  0  0  0  0  0  0  0  0  0  0  0
   10.2193   -2.0980   -0.4841 H   0  0  0  0  0  0  0  0  0  0  0  0
    9.5311    0.0938    0.4977 H   0  0  0  0  0  0  0  0  0  0  0  0
    6.0754   -3.2581   -0.8369 H   0  0  0  0  0  0  0  0  0  0  0  0
    4.7767    2.8221    1.8662 H   0  0  0  0  0  0  0  0  0  0  0  0
    2.6642    3.9076    2.4517 H   0  0  0  0  0  0  0  0  0  0  0  0
    2.6001   -0.6240    0.4377 H   0  0  0  0  0  0  0  0  0  0  0  0
    0.0790   -0.6549    1.2987 H   0  0  0  0  0  0  0  0  0  0  0  0
   -2.1629   -0.8188    0.4431 H   0  0  0  0  0  0  0  0  0  0  0  0
   -3.3539   -1.6103   -1.7511 H   0  0  0  0  0  0  0  0  0  0  0  0
   -5.2524   -3.0676   -2.2741 H   0  0  0  0  0  0  0  0  0  0  0  0
   -7.5106   -2.4934   -1.5611 H   0  0  0  0  0  0  0  0  0  0  0  0
   -5.2659    1.9712    0.9111 H   0  0  0  0  0  0  0  0  0  0  0  0
   -7.5242    2.5211    1.6235 H   0  0  0  0  0  0  0  0  0  0  0  0
   -9.4293    1.0947    0.9993 H   0  0  0  0  0  0  0  0  0  0  0  0
  1  2  2  0
  2  3  1  0
  3  4  2  0
  4  5  1  0
  5  6  2  0
  5  7  1  0
  7  8  2  0
  8  9  1  0
  8 10  1  0
 10 11  2  0
 11 12  1  0
 12 13  2  0
 13 14  1  0
 14 15  2  0
 14 16  1  0
 16 17  1  0
 17 18  2  0
 17 19  1  0
 19 20  1  0
 20 21  2  0
 20 22  1  0
 22 23  2  0
 23 24  1  0
 24 25  2  0
 25 26  1  0
 26 27  2  0
 27 28  1  0
 28 29  2  0
 29 30  1  0
 30 31  2  0
 31 32  1  0
 13 33  1  0
  6  1  1  0
  9  4  1  0
 15 10  1  0
 27 22  1  0
 31 26  1  0
  1 34  1  0
  2 35  1  0
  3 36  1  0
  6 37  1  0
 11 38  1  0
 12 39  1  0
 15 40  1  0
 16 41  1  0
 19 42  1  0
 23 43  1  0
 24 44  1  0
 25 45  1  0
 28 46  1  0
 29 47  1  0
 30 48  1  0
M  END
$$$$
