
     RDKit          3D

 48 52  0  0  0  0  0  0  0  0999 V2000
    8.8928    1.3762    0.7937 C   0  0  0  0  0  0  0  0  0  0  0  0
    8.2302    2.5091    1.3075 C   0  0  0  0  0  0  0  0  0  0  0  0
    6.8282    2.5396    1.3778 C   0  0  0  0  0  0  0  0  0  0  0  0
    6.1259    1.4248    0.9275 C   0  0  0  0  0  0  0  0  0  0  0  0
    6.7655    0.3058    0.4206 C   0  0  0  0  0  0  0  0  0  0  0  0
    8.1588    0.2639    0.3456 C   0  0  0  0  0  0  0  0  0  0  0  0
    5.9450   -0.6995    0.0218 N   0  0  0  0  0  0  0  0  0  0  0  0
    4.6388   -0.3800    0.2128 C   0  0  0  0  0  0  0  0  0  0  0  0
    4.4695    1.1718    0.8859 S   0  0  0  0  0  0  0  0  0  0  0  0
    3.5230   -1.2899   -0.1365 C   0  0  0  0  0  0  0  0  0  0  0  0
    3.7897   -2.5454   -0.7089 C   0  0  0  0  0  0  0  0  0  0  0  0
    2.7445   -3.4134   -1.0322 C   0  0  0  0  0  0  0  0  0  0  0  0
    1.4184   -3.0405   -0.7971 C   0  0  0  0  0  0  0  0  0  0  0  0
    1.1314   -1.7803   -0.2464 C   0  0  0  0  0  0  0  0  0  0  0  0
    2.1865   -0.9206    0.1001 C   0  0  0  0  0  0  0  0  0  0  0  0
   -0.2274   -1.4070    0.0290 N   0  0  0  0  0  0  0  0  0  0  0  0
   -0.8594   -0.2138   -0.4758 C   0  0  0  0  0  0  0  0  0  0  0  0
   -0.0434    0.8464   -1.4286 S   0  0  0  0  0  0  0  0  0  0  0  0
   -2.2163    0.0924   -0.1267 N   0  0  0  0  0  0  0  0  0  0  0  0
   -3.2613   -0.8913   -0.0576 C   0  0  0  0  0  0  0  0  0  0  0  0
   -3.0362   -2.0912   -0.3720 O   0  0  0  0  0  0  0  0  0  0  0  0
   -4.6149   -0.5091    0.3942 C   0  0  0  0  0  0  0  0  0  0  0  0
   -5.1398   -1.1688    1.5139 C   0  0  0  0  0  0  0  0  0  0  0  0
   -6.3856   -0.8172    2.0266 C   0  0  0  0  0  0  0  0  0  0  0  0
   -7.1337    0.1945    1.4286 C   0  0  0  0  0  0  0  0  0  0  0  0
   -6.6524    0.8613    0.2864 C   0  0  0  0  0  0  0  0  0  0  0  0
   -5.3824    0.4982   -0.2489 C   0  0  0  0  0  0  0  0  0  0  0  0
   -4.9358    1.1282   -1.4295 C   0  0  0  0  0  0  0  0  0  0  0  0
   -5.7013    2.1208   -2.0392 C   0  0  0  0  0  0  0  0  0  0  0  0
   -6.9273    2.4964   -1.4965 C   0  0  0  0  0  0  0  0  0  0  0  0
   -7.4133    1.8740   -0.3437 C   0  0  0  0  0  0  0  0  0  0  0  0
   -8.9837    2.3946    0.2657 Cl  0  0  0  0  0  0  0  0  0  0  0  0
    0.1283   -4.1555   -1.2269 Cl  0  0  0  0  0  0  0  0  0  0  0  0
    9.9738    1.3622    0.7435 H   0  0  0  0  0  0  0  0  0  0  0  0
    8.8047    3.3601    1.6497 H   0  0  0  0  0  0  0  0  0  0  0  0
    6.3098    3.4047    1.7706 H   0  0  0  0  0  0  0  0  0  0  0  0
    8.6664   -0.6069   -0.0494 H   0  0  0  0  0  0  0  0  0  0  0  0
    4.8072   -2.8604   -0.9034 H   0  0  0  0  0  0  0  0  0  0  0  0
    2.9679   -4.3793   -1.4674 H   0  0  0  0  0  0  0  0  0  0  0  0
    1.9557    0.0283    0.5661 H   0  0  0  0  0  0  0  0  0  0  0  0
   -0.7866   -2.0638    0.6162 H   0  0  0  0  0  0  0  0  0  0  0  0
   -2.4709    1.0977    0.0027 H   0  0  0  0  0  0  0  0  0  0  0  0
   -4.5697   -1.9466    2.0083 H   0  0  0  0  0  0  0  0  0  0  0  0
   -6.7713   -1.3279    2.8997 H   0  0  0  0  0  0  0  0  0  0  0  0
   -8.0938    0.4390    1.8627 H   0  0  0  0  0  0  0  0  0  0  0  0
   -4.0033    0.8501   -1.9012 H   0  0  0  0  0  0  0  0  0  0  0  0
   -5.3436    2.5988   -2.9422 H   0  0  0  0  0  0  0  0  0  0  0  0
   -7.5085    3.2699   -1.9827 H   0  0  0  0  0  0  0  0  0  0  0  0
  1  2  2  0
  2  3  1  0
  3  4  2  0
  4  5  1  0
  5  6  2  0
  5  7  1  0
  7  8  2  0
  8  9  1  0
  8 10  1  0
 10 11  2  0
 11 12  1  0
 12 13  2  0
 13 14  1  0
 14 15  2  0
 14 16  1  0
 16 17  1  0
 17 18  2  0
 17 19  1  0
 19 20  1  0
 20 21  2  0
 20 22  1  0
 22 23  2  0
 23 24  1  0
 24 25  2  0
 25 26  1  0
 26 27  2  0
 27 28  1  0
 28 29  2  0
 29 30  1  0
 30 31  2  0
 31 32  1  0
 13 33  1  0
  6  1  1  0
  9  4  1  0
 15 10  1  0
 27 22  1  0
 31 26  1  0
  1 34  1  0
  2 35  1  0
  3 36  1  0
  6 37  1  0
 11 38  1  0
 12 39  1  0
 15 40  1  0
 16 41  1  0
 19 42  1  0
 23 43  1  0
 24 44  1  0
 25 45  1  0
 28 46  1  0
 29 47  1  0
 30 48  1  0
M  END
$$$$
