
     RDKit          3D

 48 52  0  0  0  0  0  0  0  0999 V2000
    8.6778    1.3366    0.3033 C   0  0  0  0  0  0  0  0  0  0  0  0
    8.0227    2.4510   -0.2587 C   0  0  0  0  0  0  0  0  0  0  0  0
    6.6322    2.4329   -0.4525 C   0  0  0  0  0  0  0  0  0  0  0  0
    5.9335    1.2893   -0.0744 C   0  0  0  0  0  0  0  0  0  0  0  0
    6.5658    0.1882    0.4787 C   0  0  0  0  0  0  0  0  0  0  0  0
    7.9477    0.1945    0.6763 C   0  0  0  0  0  0  0  0  0  0  0  0
    5.7500   -0.8495    0.7959 N   0  0  0  0  0  0  0  0  0  0  0  0
    4.4550   -0.5742    0.4925 C   0  0  0  0  0  0  0  0  0  0  0  0
    4.2901    0.9778   -0.1813 S   0  0  0  0  0  0  0  0  0  0  0  0
    3.3463   -1.5267    0.7350 C   0  0  0  0  0  0  0  0  0  0  0  0
    3.6067   -2.7770    1.3196 C   0  0  0  0  0  0  0  0  0  0  0  0
    2.5695   -3.6839    1.5443 C   0  0  0  0  0  0  0  0  0  0  0  0
    1.2560   -3.3574    1.1959 C   0  0  0  0  0  0  0  0  0  0  0  0
    0.9710   -2.1032    0.6254 C   0  0  0  0  0  0  0  0  0  0  0  0
    2.0236   -1.2025    0.3836 C   0  0  0  0  0  0  0  0  0  0  0  0
   -0.3745   -1.7715    0.2383 N   0  0  0  0  0  0  0  0  0  0  0  0
   -0.9561   -0.4646    0.3811 C   0  0  0  0  0  0  0  0  0  0  0  0
   -0.4724    0.5157    1.6129 S   0  0  0  0  0  0  0  0  0  0  0  0
   -2.1434   -0.1533   -0.3673 N   0  0  0  0  0  0  0  0  0  0  0  0
   -2.6443    1.1763   -0.5851 C   0  0  0  0  0  0  0  0  0  0  0  0
   -1.8960    2.1761   -0.4095 O   0  0  0  0  0  0  0  0  0  0  0  0
   -4.0101    1.3805   -1.1182 C   0  0  0  0  0  0  0  0  0  0  0  0
   -4.1573    2.2110   -2.2391 C   0  0  0  0  0  0  0  0  0  0  0  0
   -5.4030    2.3910   -2.8336 C   0  0  0  0  0  0  0  0  0  0  0  0
   -6.5278    1.7506   -2.3201 C   0  0  0  0  0  0  0  0  0  0  0  0
   -6.4277    0.9317   -1.1802 C   0  0  0  0  0  0  0  0  0  0  0  0
   -5.1570    0.7537   -0.5585 C   0  0  0  0  0  0  0  0  0  0  0  0
   -5.0812   -0.0136    0.6235 C   0  0  0  0  0  0  0  0  0  0  0  0
   -6.2171   -0.6284    1.1476 C   0  0  0  0  0  0  0  0  0  0  0  0
   -7.4499   -0.4821    0.5179 C   0  0  0  0  0  0  0  0  0  0  0  0
   -7.5686    0.2958   -0.6363 C   0  0  0  0  0  0  0  0  0  0  0  0
   -9.1705    0.4479   -1.3572 Cl  0  0  0  0  0  0  0  0  0  0  0  0
   -0.0197   -4.5244    1.5197 Cl  0  0  0  0  0  0  0  0  0  0  0  0
    9.7500    1.3602    0.4487 H   0  0  0  0  0  0  0  0  0  0  0  0
    8.5942    3.3252   -0.5423 H   0  0  0  0  0  0  0  0  0  0  0  0
    6.1196    3.2833   -0.8830 H   0  0  0  0  0  0  0  0  0  0  0  0
    8.4495   -0.6620    1.1081 H   0  0  0  0  0  0  0  0  0  0  0  0
    4.6138   -3.0577    1.6016 H   0  0  0  0  0  0  0  0  0  0  0  0
    2.7890   -4.6441    1.9938 H   0  0  0  0  0  0  0  0  0  0  0  0
    1.8056   -0.2571   -0.0950 H   0  0  0  0  0  0  0  0  0  0  0  0
   -0.9621   -2.5210   -0.1908 H   0  0  0  0  0  0  0  0  0  0  0  0
   -2.6477   -0.9419   -0.8316 H   0  0  0  0  0  0  0  0  0  0  0  0
   -3.2955    2.7032   -2.6740 H   0  0  0  0  0  0  0  0  0  0  0  0
   -5.4957    3.0248   -3.7063 H   0  0  0  0  0  0  0  0  0  0  0  0
   -7.4744    1.9134   -2.8174 H   0  0  0  0  0  0  0  0  0  0  0  0
   -4.1543   -0.1294    1.1668 H   0  0  0  0  0  0  0  0  0  0  0  0
   -6.1419   -1.2176    2.0526 H   0  0  0  0  0  0  0  0  0  0  0  0
   -8.3217   -0.9674    0.9384 H   0  0  0  0  0  0  0  0  0  0  0  0
  1  2  2  0
  2  3  1  0
  3  4  2  0
  4  5  1  0
  5  6  2  0
  5  7  1  0
  7  8  2  0
  8  9  1  0
  8 10  1  0
 10 11  2  0
 11 12  1  0
 12 13  2  0
 13 14  1  0
 14 15  2  0
 14 16  1  0
 16 17  1  0
 17 18  2  0
 17 19  1  0
 19 20  1  0
 20 21  2  0
 20 22  1  0
 22 23  2  0
 23 24  1  0
 24 25  2  0
 25 26  1  0
 26 27  2  0
 27 28  1  0
 28 29  2  0
 29 30  1  0
 30 31  2  0
 31 32  1  0
 13 33  1  0
  6  1  1  0
  9  4  1  0
 15 10  1  0
 27 22  1  0
 31 26  1  0
  1 34  1  0
  2 35  1  0
  3 36  1  0
  6 37  1  0
 11 38  1  0
 12 39  1  0
 15 40  1  0
 16 41  1  0
 19 42  1  0
 23 43  1  0
 24 44  1  0
 25 45  1  0
 28 46  1  0
 29 47  1  0
 30 48  1  0
M  END
$$$$
