
     RDKit          3D

 48 52  0  0  0  0  0  0  0  0999 V2000
   -8.6345   -0.0057   -1.4504 C   0  0  0  0  0  0  0  0  0  0  0  0
   -7.9956    0.7714   -2.4376 C   0  0  0  0  0  0  0  0  0  0  0  0
   -6.6086    0.9836   -2.3857 C   0  0  0  0  0  0  0  0  0  0  0  0
   -5.8969    0.4059   -1.3376 C   0  0  0  0  0  0  0  0  0  0  0  0
   -6.5132   -0.3596   -0.3617 C   0  0  0  0  0  0  0  0  0  0  0  0
   -7.8915   -0.5774   -0.4027 C   0  0  0  0  0  0  0  0  0  0  0  0
   -5.6862   -0.8546    0.5944 N   0  0  0  0  0  0  0  0  0  0  0  0
   -4.3982   -0.4810    0.3792 C   0  0  0  0  0  0  0  0  0  0  0  0
   -4.2541    0.4817   -1.0145 S   0  0  0  0  0  0  0  0  0  0  0  0
   -3.2809   -0.8762    1.2686 C   0  0  0  0  0  0  0  0  0  0  0  0
   -3.5298   -1.6627    2.4052 C   0  0  0  0  0  0  0  0  0  0  0  0
   -2.4825   -2.0464    3.2444 C   0  0  0  0  0  0  0  0  0  0  0  0
   -1.1715   -1.6488    2.9680 C   0  0  0  0  0  0  0  0  0  0  0  0
   -0.9020   -0.8472    1.8427 C   0  0  0  0  0  0  0  0  0  0  0  0
   -1.9604   -0.4792    0.9922 C   0  0  0  0  0  0  0  0  0  0  0  0
    0.4481   -0.4553    1.5351 N   0  0  0  0  0  0  0  0  0  0  0  0
    0.8003    0.8095    0.9493 C   0  0  0  0  0  0  0  0  0  0  0  0
   -0.0192    2.1671    1.3739 S   0  0  0  0  0  0  0  0  0  0  0  0
    2.0198    0.9458    0.2057 N   0  0  0  0  0  0  0  0  0  0  0  0
    2.6443   -0.1435   -0.4905 C   0  0  0  0  0  0  0  0  0  0  0  0
    1.9944   -1.1962   -0.7363 O   0  0  0  0  0  0  0  0  0  0  0  0
    4.0223   -0.0049   -1.0117 C   0  0  0  0  0  0  0  0  0  0  0  0
    4.2451   -0.3125   -2.3620 C   0  0  0  0  0  0  0  0  0  0  0  0
    5.5022   -0.1388   -2.9340 C   0  0  0  0  0  0  0  0  0  0  0  0
    6.5636    0.3402   -2.1703 C   0  0  0  0  0  0  0  0  0  0  0  0
    6.3885    0.6335   -0.8052 C   0  0  0  0  0  0  0  0  0  0  0  0
    5.1066    0.4455   -0.2101 C   0  0  0  0  0  0  0  0  0  0  0  0
    4.9601    0.6772    1.1742 C   0  0  0  0  0  0  0  0  0  0  0  0
    6.0348    1.1291    1.9382 C   0  0  0  0  0  0  0  0  0  0  0  0
    7.2763    1.3459    1.3470 C   0  0  0  0  0  0  0  0  0  0  0  0
    7.4663    1.0973   -0.0146 C   0  0  0  0  0  0  0  0  0  0  0  0
    9.0758    1.3756   -0.6786 Cl  0  0  0  0  0  0  0  0  0  0  0  0
    0.1080   -2.1395    4.0713 Cl  0  0  0  0  0  0  0  0  0  0  0  0
   -9.7041   -0.1635   -1.4990 H   0  0  0  0  0  0  0  0  0  0  0  0
   -8.5769    1.2071   -3.2398 H   0  0  0  0  0  0  0  0  0  0  0  0
   -6.1085    1.5787   -3.1387 H   0  0  0  0  0  0  0  0  0  0  0  0
   -8.3807   -1.1745    0.3563 H   0  0  0  0  0  0  0  0  0  0  0  0
   -4.5350   -1.9852    2.6464 H   0  0  0  0  0  0  0  0  0  0  0  0
   -2.6931   -2.6542    4.1154 H   0  0  0  0  0  0  0  0  0  0  0  0
   -1.7441    0.1028    0.1064 H   0  0  0  0  0  0  0  0  0  0  0  0
    1.2241   -1.1155    1.7648 H   0  0  0  0  0  0  0  0  0  0  0  0
    2.4494    1.8950    0.1197 H   0  0  0  0  0  0  0  0  0  0  0  0
    3.4320   -0.6650   -2.9855 H   0  0  0  0  0  0  0  0  0  0  0  0
    5.6528   -0.3684   -3.9811 H   0  0  0  0  0  0  0  0  0  0  0  0
    7.5214    0.4660   -2.6569 H   0  0  0  0  0  0  0  0  0  0  0  0
    4.0258    0.4925    1.6850 H   0  0  0  0  0  0  0  0  0  0  0  0
    5.9056    1.3066    2.9982 H   0  0  0  0  0  0  0  0  0  0  0  0
    8.0999    1.6978    1.9554 H   0  0  0  0  0  0  0  0  0  0  0  0
  1  2  2  0
  2  3  1  0
  3  4  2  0
  4  5  1  0
  5  6  2  0
  5  7  1  0
  7  8  2  0
  8  9  1  0
  8 10  1  0
 10 11  2  0
 11 12  1  0
 12 13  2  0
 13 14  1  0
 14 15  2  0
 14 16  1  0
 16 17  1  0
 17 18  2  0
 17 19  1  0
 19 20  1  0
 20 21  2  0
 20 22  1  0
 22 23  2  0
 23 24  1  0
 24 25  2  0
 25 26  1  0
 26 27  2  0
 27 28  1  0
 28 29  2  0
 29 30  1  0
 30 31  2  0
 31 32  1  0
 13 33  1  0
  6  1  1  0
  9  4  1  0
 15 10  1  0
 27 22  1  0
 31 26  1  0
  1 34  1  0
  2 35  1  0
  3 36  1  0
  6 37  1  0
 11 38  1  0
 12 39  1  0
 15 40  1  0
 16 41  1  0
 19 42  1  0
 23 43  1  0
 24 44  1  0
 25 45  1  0
 28 46  1  0
 29 47  1  0
 30 48  1  0
M  END
$$$$
