
     RDKit          3D

 53 56  0  0  0  0  0  0  0  0999 V2000
   -5.5994   -2.7368    1.0055 C   0  0  0  0  0  0  0  0  0  0  0  0
   -5.3214   -1.4041    0.5886 O   0  0  0  0  0  0  0  0  0  0  0  0
   -6.2942   -0.4145    0.3682 C   0  0  0  0  0  0  0  0  0  0  0  0
   -7.6646   -0.6719    0.5757 C   0  0  0  0  0  0  0  0  0  0  0  0
   -8.6114    0.3377    0.3958 C   0  0  0  0  0  0  0  0  0  0  0  0
   -8.2078    1.6162    0.0107 C   0  0  0  0  0  0  0  0  0  0  0  0
   -6.8544    1.8853   -0.2061 C   0  0  0  0  0  0  0  0  0  0  0  0
   -5.8884    0.8753   -0.0465 C   0  0  0  0  0  0  0  0  0  0  0  0
   -4.4625    1.1935   -0.2982 C   0  0  0  0  0  0  0  0  0  0  0  0
   -4.0406    2.3615   -0.0762 O   0  0  0  0  0  0  0  0  0  0  0  0
   -3.5790    0.2091   -0.8593 N   0  0  0  0  0  0  0  0  0  0  0  0
   -2.1452    0.2747   -0.7698 C   0  0  0  0  0  0  0  0  0  0  0  0
   -1.5056    0.8641    0.3339 C   0  0  0  0  0  0  0  0  0  0  0  0
   -0.1103    0.8937    0.4107 C   0  0  0  0  0  0  0  0  0  0  0  0
    0.6752    0.3272   -0.6090 C   0  0  0  0  0  0  0  0  0  0  0  0
    0.0301   -0.2831   -1.7000 C   0  0  0  0  0  0  0  0  0  0  0  0
   -1.3650   -0.3136   -1.7744 C   0  0  0  0  0  0  0  0  0  0  0  0
    2.1177    0.3548   -0.5267 N   0  0  0  0  0  0  0  0  0  0  0  0
    2.7752    0.1348    0.7723 C   0  0  0  0  0  0  0  0  0  0  0  0
    4.2504   -0.2364    0.5999 C   0  0  0  0  0  0  0  0  0  0  0  0
    4.9151    0.7329   -0.2810 N   0  0  0  0  0  0  0  0  0  0  0  0
    4.2228    1.2390   -1.4742 C   0  0  0  0  0  0  0  0  0  0  0  0
    2.9274    0.4670   -1.7499 C   0  0  0  0  0  0  0  0  0  0  0  0
    6.2051    1.2781    0.0554 C   0  0  0  0  0  0  0  0  0  0  0  0
    6.4431    2.4940   -0.1764 O   0  0  0  0  0  0  0  0  0  0  0  0
    7.2724    0.4564    0.6546 C   0  0  0  0  0  0  0  0  0  0  0  0
    7.3642   -0.9235    0.6427 C   0  0  0  0  0  0  0  0  0  0  0  0
    8.5374   -1.2246    1.2997 C   0  0  0  0  0  0  0  0  0  0  0  0
    9.0924   -0.0162    1.6664 C   0  0  0  0  0  0  0  0  0  0  0  0
    8.3183    0.9655    1.2650 O   0  0  0  0  0  0  0  0  0  0  0  0
   -9.4009    2.8839   -0.2066 Cl  0  0  0  0  0  0  0  0  0  0  0  0
   -6.2406   -3.2456    0.2551 H   0  0  0  0  0  0  0  0  0  0  0  0
   -6.0995   -2.7305    1.9969 H   0  0  0  0  0  0  0  0  0  0  0  0
   -4.6448   -3.2948    1.0932 H   0  0  0  0  0  0  0  0  0  0  0  0
   -8.0089   -1.6484    0.8869 H   0  0  0  0  0  0  0  0  0  0  0  0
   -9.6599    0.1257    0.5627 H   0  0  0  0  0  0  0  0  0  0  0  0
   -6.5588    2.8806   -0.5156 H   0  0  0  0  0  0  0  0  0  0  0  0
   -4.0012   -0.5442   -1.4483 H   0  0  0  0  0  0  0  0  0  0  0  0
   -2.0810    1.2834    1.1485 H   0  0  0  0  0  0  0  0  0  0  0  0
    0.3534    1.3662    1.2661 H   0  0  0  0  0  0  0  0  0  0  0  0
    0.6043   -0.7535   -2.4875 H   0  0  0  0  0  0  0  0  0  0  0  0
   -1.8401   -0.7931   -2.6212 H   0  0  0  0  0  0  0  0  0  0  0  0
    2.2653   -0.6889    1.3183 H   0  0  0  0  0  0  0  0  0  0  0  0
    2.7053    1.0616    1.3811 H   0  0  0  0  0  0  0  0  0  0  0  0
    4.7306   -0.2569    1.6025 H   0  0  0  0  0  0  0  0  0  0  0  0
    4.3220   -1.2504    0.1515 H   0  0  0  0  0  0  0  0  0  0  0  0
    3.9791    2.3138   -1.3271 H   0  0  0  0  0  0  0  0  0  0  0  0
    4.8899    1.1470   -2.3586 H   0  0  0  0  0  0  0  0  0  0  0  0
    3.1715   -0.5515   -2.1221 H   0  0  0  0  0  0  0  0  0  0  0  0
    2.3632    1.0056   -2.5426 H   0  0  0  0  0  0  0  0  0  0  0  0
    6.6834   -1.6300    0.1893 H   0  0  0  0  0  0  0  0  0  0  0  0
    8.9470   -2.2094    1.4800 H   0  0  0  0  0  0  0  0  0  0  0  0
   10.0238    0.1187    2.1998 H   0  0  0  0  0  0  0  0  0  0  0  0
  1  2  1  0
  2  3  1  0
  3  4  2  0
  4  5  1  0
  5  6  2  0
  6  7  1  0
  7  8  2  0
  8  9  1  0
  9 10  2  0
  9 11  1  0
 11 12  1  0
 12 13  2  0
 13 14  1  0
 14 15  2  0
 15 16  1  0
 16 17  2  0
 15 18  1  0
 18 19  1  0
 19 20  1  0
 20 21  1  0
 21 22  1  0
 22 23  1  0
 21 24  1  0
 24 25  2  0
 24 26  1  0
 26 27  2  0
 27 28  1  0
 28 29  2  0
 29 30  1  0
  6 31  1  0
  8  3  1  0
 17 12  1  0
 23 18  1  0
 30 26  1  0
  1 32  1  0
  1 33  1  0
  1 34  1  0
  4 35  1  0
  5 36  1  0
  7 37  1  0
 11 38  1  0
 13 39  1  0
 14 40  1  0
 16 41  1  0
 17 42  1  0
 19 43  1  0
 19 44  1  0
 20 45  1  0
 20 46  1  0
 22 47  1  0
 22 48  1  0
 23 49  1  0
 23 50  1  0
 27 51  1  0
 28 52  1  0
 29 53  1  0
M  END
$$$$
