
     RDKit          3D

 53 56  0  0  0  0  0  0  0  0999 V2000
   -6.0670   -0.3078   -1.6824 C   0  0  0  0  0  0  0  0  0  0  0  0
   -5.4675   -0.2232   -0.3938 O   0  0  0  0  0  0  0  0  0  0  0  0
   -6.1698   -0.2826    0.8217 C   0  0  0  0  0  0  0  0  0  0  0  0
   -7.5677   -0.4619    0.8549 C   0  0  0  0  0  0  0  0  0  0  0  0
   -8.2413   -0.5646    2.0730 C   0  0  0  0  0  0  0  0  0  0  0  0
   -7.5337   -0.4936    3.2730 C   0  0  0  0  0  0  0  0  0  0  0  0
   -6.1493   -0.3087    3.2572 C   0  0  0  0  0  0  0  0  0  0  0  0
   -5.4565   -0.1856    2.0391 C   0  0  0  0  0  0  0  0  0  0  0  0
   -3.9891    0.0234    2.0608 C   0  0  0  0  0  0  0  0  0  0  0  0
   -3.3082   -0.4660    3.0035 O   0  0  0  0  0  0  0  0  0  0  0  0
   -3.3487    0.8358    1.0636 N   0  0  0  0  0  0  0  0  0  0  0  0
   -1.9440    0.7762    0.7618 C   0  0  0  0  0  0  0  0  0  0  0  0
   -1.2962    1.9186    0.2699 C   0  0  0  0  0  0  0  0  0  0  0  0
    0.0632    1.8803   -0.0520 C   0  0  0  0  0  0  0  0  0  0  0  0
    0.7963    0.6935    0.0998 C   0  0  0  0  0  0  0  0  0  0  0  0
    0.1436   -0.4583    0.5691 C   0  0  0  0  0  0  0  0  0  0  0  0
   -1.2157   -0.4195    0.8927 C   0  0  0  0  0  0  0  0  0  0  0  0
    2.1957    0.6598   -0.2385 N   0  0  0  0  0  0  0  0  0  0  0  0
    2.7623   -0.4925   -0.9497 C   0  0  0  0  0  0  0  0  0  0  0  0
    3.8185   -0.0221   -1.9508 C   0  0  0  0  0  0  0  0  0  0  0  0
    4.7497    0.9097   -1.3036 N   0  0  0  0  0  0  0  0  0  0  0  0
    4.1796    2.0634   -0.6008 C   0  0  0  0  0  0  0  0  0  0  0  0
    3.1272    1.5946    0.4045 C   0  0  0  0  0  0  0  0  0  0  0  0
    6.1217    0.9528   -1.7288 C   0  0  0  0  0  0  0  0  0  0  0  0
    6.6086    2.0322   -2.1608 O   0  0  0  0  0  0  0  0  0  0  0  0
    6.9838   -0.2368   -1.6452 C   0  0  0  0  0  0  0  0  0  0  0  0
    6.6993   -1.4110   -0.9741 C   0  0  0  0  0  0  0  0  0  0  0  0
    7.7990   -2.2206   -1.1594 C   0  0  0  0  0  0  0  0  0  0  0  0
    8.6862   -1.4924   -1.9255 C   0  0  0  0  0  0  0  0  0  0  0  0
    8.1734   -0.3142   -2.1965 O   0  0  0  0  0  0  0  0  0  0  0  0
   -8.3838   -0.6310    4.8015 Cl  0  0  0  0  0  0  0  0  0  0  0  0
   -6.5807   -1.2851   -1.8013 H   0  0  0  0  0  0  0  0  0  0  0  0
   -6.7881    0.5248   -1.8234 H   0  0  0  0  0  0  0  0  0  0  0  0
   -5.2757   -0.2265   -2.4554 H   0  0  0  0  0  0  0  0  0  0  0  0
   -8.1436   -0.5338   -0.0574 H   0  0  0  0  0  0  0  0  0  0  0  0
   -9.3146   -0.7060    2.0822 H   0  0  0  0  0  0  0  0  0  0  0  0
   -5.6162   -0.2445    4.1982 H   0  0  0  0  0  0  0  0  0  0  0  0
   -3.9202    1.5790    0.6012 H   0  0  0  0  0  0  0  0  0  0  0  0
   -1.8456    2.8427    0.1410 H   0  0  0  0  0  0  0  0  0  0  0  0
    0.5416    2.7723   -0.4362 H   0  0  0  0  0  0  0  0  0  0  0  0
    0.6880   -1.3862    0.6899 H   0  0  0  0  0  0  0  0  0  0  0  0
   -1.6986   -1.3291    1.2240 H   0  0  0  0  0  0  0  0  0  0  0  0
    3.2251   -1.1865   -0.2151 H   0  0  0  0  0  0  0  0  0  0  0  0
    1.9693   -1.0416   -1.5033 H   0  0  0  0  0  0  0  0  0  0  0  0
    3.3180    0.4959   -2.7977 H   0  0  0  0  0  0  0  0  0  0  0  0
    4.3506   -0.9059   -2.3622 H   0  0  0  0  0  0  0  0  0  0  0  0
    4.9730    2.6195   -0.0544 H   0  0  0  0  0  0  0  0  0  0  0  0
    3.7119    2.7506   -1.3391 H   0  0  0  0  0  0  0  0  0  0  0  0
    3.6300    1.0791    1.2514 H   0  0  0  0  0  0  0  0  0  0  0  0
    2.5955    2.4804    0.8133 H   0  0  0  0  0  0  0  0  0  0  0  0
    5.8098   -1.6480   -0.4059 H   0  0  0  0  0  0  0  0  0  0  0  0
    7.9410   -3.2218   -0.7755 H   0  0  0  0  0  0  0  0  0  0  0  0
    9.6599   -1.8262   -2.2581 H   0  0  0  0  0  0  0  0  0  0  0  0
  1  2  1  0
  2  3  1  0
  3  4  2  0
  4  5  1  0
  5  6  2  0
  6  7  1  0
  7  8  2  0
  8  9  1  0
  9 10  2  0
  9 11  1  0
 11 12  1  0
 12 13  2  0
 13 14  1  0
 14 15  2  0
 15 16  1  0
 16 17  2  0
 15 18  1  0
 18 19  1  0
 19 20  1  0
 20 21  1  0
 21 22  1  0
 22 23  1  0
 21 24  1  0
 24 25  2  0
 24 26  1  0
 26 27  2  0
 27 28  1  0
 28 29  2  0
 29 30  1  0
  6 31  1  0
  8  3  1  0
 17 12  1  0
 23 18  1  0
 30 26  1  0
  1 32  1  0
  1 33  1  0
  1 34  1  0
  4 35  1  0
  5 36  1  0
  7 37  1  0
 11 38  1  0
 13 39  1  0
 14 40  1  0
 16 41  1  0
 17 42  1  0
 19 43  1  0
 19 44  1  0
 20 45  1  0
 20 46  1  0
 22 47  1  0
 22 48  1  0
 23 49  1  0
 23 50  1  0
 27 51  1  0
 28 52  1  0
 29 53  1  0
M  END
$$$$
