
     RDKit          3D

 53 56  0  0  0  0  0  0  0  0999 V2000
    5.8277   -2.4121   -0.1981 C   0  0  0  0  0  0  0  0  0  0  0  0
    5.3863   -1.0666   -0.0503 O   0  0  0  0  0  0  0  0  0  0  0  0
    6.2317    0.0341    0.1688 C   0  0  0  0  0  0  0  0  0  0  0  0
    7.6276   -0.1234    0.2874 C   0  0  0  0  0  0  0  0  0  0  0  0
    8.4459    0.9761    0.5509 C   0  0  0  0  0  0  0  0  0  0  0  0
    7.8870    2.2450    0.7031 C   0  0  0  0  0  0  0  0  0  0  0  0
    6.5064    2.4189    0.5812 C   0  0  0  0  0  0  0  0  0  0  0  0
    5.6685    1.3249    0.2984 C   0  0  0  0  0  0  0  0  0  0  0  0
    4.2094    1.5491    0.1626 C   0  0  0  0  0  0  0  0  0  0  0  0
    3.6607    2.4716    0.8254 O   0  0  0  0  0  0  0  0  0  0  0  0
    3.4320    0.7777   -0.7675 N   0  0  0  0  0  0  0  0  0  0  0  0
    2.0031    0.6338   -0.6926 C   0  0  0  0  0  0  0  0  0  0  0  0
    1.3278    0.6515    0.5406 C   0  0  0  0  0  0  0  0  0  0  0  0
   -0.0591    0.4844    0.5895 C   0  0  0  0  0  0  0  0  0  0  0  0
   -0.7939    0.2871   -0.5912 C   0  0  0  0  0  0  0  0  0  0  0  0
   -0.1162    0.2469   -1.8192 C   0  0  0  0  0  0  0  0  0  0  0  0
    1.2707    0.4121   -1.8678 C   0  0  0  0  0  0  0  0  0  0  0  0
   -2.2226    0.1111   -0.5479 N   0  0  0  0  0  0  0  0  0  0  0  0
   -2.8405   -0.7081    0.5019 C   0  0  0  0  0  0  0  0  0  0  0  0
   -4.0220   -1.4910   -0.0726 C   0  0  0  0  0  0  0  0  0  0  0  0
   -4.8923   -0.5981   -0.8468 N   0  0  0  0  0  0  0  0  0  0  0  0
   -4.2721    0.2126   -1.8994 C   0  0  0  0  0  0  0  0  0  0  0  0
   -3.0939    1.0004   -1.3257 C   0  0  0  0  0  0  0  0  0  0  0  0
   -6.3063   -0.8499   -0.8943 C   0  0  0  0  0  0  0  0  0  0  0  0
   -6.8702   -1.0417   -2.0051 O   0  0  0  0  0  0  0  0  0  0  0  0
   -7.1204   -0.8623    0.3315 C   0  0  0  0  0  0  0  0  0  0  0  0
   -6.7260   -0.4284    1.5831 C   0  0  0  0  0  0  0  0  0  0  0  0
   -7.8183   -0.6151    2.4022 C   0  0  0  0  0  0  0  0  0  0  0  0
   -8.8105   -1.1454    1.6030 C   0  0  0  0  0  0  0  0  0  0  0  0
   -8.3654   -1.2783    0.3746 O   0  0  0  0  0  0  0  0  0  0  0  0
    8.9190    3.6227    1.0420 Cl  0  0  0  0  0  0  0  0  0  0  0  0
    6.5042   -2.4978   -1.0745 H   0  0  0  0  0  0  0  0  0  0  0  0
    4.9468   -3.0653   -0.3647 H   0  0  0  0  0  0  0  0  0  0  0  0
    6.3488   -2.7467    0.7236 H   0  0  0  0  0  0  0  0  0  0  0  0
    8.0907   -1.0953    0.1876 H   0  0  0  0  0  0  0  0  0  0  0  0
    9.5159    0.8386    0.6430 H   0  0  0  0  0  0  0  0  0  0  0  0
    6.0895    3.4128    0.6912 H   0  0  0  0  0  0  0  0  0  0  0  0
    3.9236    0.3796   -1.5998 H   0  0  0  0  0  0  0  0  0  0  0  0
    1.8710    0.7726    1.4683 H   0  0  0  0  0  0  0  0  0  0  0  0
   -0.5603    0.5146    1.5485 H   0  0  0  0  0  0  0  0  0  0  0  0
   -0.6608    0.0706   -2.7381 H   0  0  0  0  0  0  0  0  0  0  0  0
    1.7760    0.3729   -2.8248 H   0  0  0  0  0  0  0  0  0  0  0  0
   -2.1060   -1.4311    0.9197 H   0  0  0  0  0  0  0  0  0  0  0  0
   -3.1926   -0.0478    1.3237 H   0  0  0  0  0  0  0  0  0  0  0  0
   -3.6414   -2.2943   -0.7404 H   0  0  0  0  0  0  0  0  0  0  0  0
   -4.5765   -1.9767    0.7582 H   0  0  0  0  0  0  0  0  0  0  0  0
   -3.9153   -0.4529   -2.7154 H   0  0  0  0  0  0  0  0  0  0  0  0
   -5.0080    0.9298   -2.3253 H   0  0  0  0  0  0  0  0  0  0  0  0
   -3.4768    1.8044   -0.6603 H   0  0  0  0  0  0  0  0  0  0  0  0
   -2.5401    1.4839   -2.1588 H   0  0  0  0  0  0  0  0  0  0  0  0
   -5.7684   -0.0124    1.8663 H   0  0  0  0  0  0  0  0  0  0  0  0
   -7.8864   -0.3855    3.4570 H   0  0  0  0  0  0  0  0  0  0  0  0
   -9.8081   -1.4136    1.9238 H   0  0  0  0  0  0  0  0  0  0  0  0
  1  2  1  0
  2  3  1  0
  3  4  2  0
  4  5  1  0
  5  6  2  0
  6  7  1  0
  7  8  2  0
  8  9  1  0
  9 10  2  0
  9 11  1  0
 11 12  1  0
 12 13  2  0
 13 14  1  0
 14 15  2  0
 15 16  1  0
 16 17  2  0
 15 18  1  0
 18 19  1  0
 19 20  1  0
 20 21  1  0
 21 22  1  0
 22 23  1  0
 21 24  1  0
 24 25  2  0
 24 26  1  0
 26 27  2  0
 27 28  1  0
 28 29  2  0
 29 30  1  0
  6 31  1  0
  8  3  1  0
 17 12  1  0
 23 18  1  0
 30 26  1  0
  1 32  1  0
  1 33  1  0
  1 34  1  0
  4 35  1  0
  5 36  1  0
  7 37  1  0
 11 38  1  0
 13 39  1  0
 14 40  1  0
 16 41  1  0
 17 42  1  0
 19 43  1  0
 19 44  1  0
 20 45  1  0
 20 46  1  0
 22 47  1  0
 22 48  1  0
 23 49  1  0
 23 50  1  0
 27 51  1  0
 28 52  1  0
 29 53  1  0
M  END
$$$$
