
     RDKit          3D

 53 56  0  0  0  0  0  0  0  0999 V2000
   -6.4775   -1.1676   -2.3318 C   0  0  0  0  0  0  0  0  0  0  0  0
   -5.8710   -0.7509   -1.1129 O   0  0  0  0  0  0  0  0  0  0  0  0
   -6.5396   -0.0800   -0.0753 C   0  0  0  0  0  0  0  0  0  0  0  0
   -7.9162    0.2135   -0.1535 C   0  0  0  0  0  0  0  0  0  0  0  0
   -8.5707    0.8329    0.9130 C   0  0  0  0  0  0  0  0  0  0  0  0
   -7.8661    1.1638    2.0711 C   0  0  0  0  0  0  0  0  0  0  0  0
   -6.4997    0.8867    2.1597 C   0  0  0  0  0  0  0  0  0  0  0  0
   -5.8225    0.2837    1.0863 C   0  0  0  0  0  0  0  0  0  0  0  0
   -4.3731    0.0191    1.2129 C   0  0  0  0  0  0  0  0  0  0  0  0
   -3.9356   -0.4778    2.2861 O   0  0  0  0  0  0  0  0  0  0  0  0
   -3.4732    0.3269    0.1329 N   0  0  0  0  0  0  0  0  0  0  0  0
   -2.0552    0.0964    0.1761 C   0  0  0  0  0  0  0  0  0  0  0  0
   -1.3018    0.3675    1.3302 C   0  0  0  0  0  0  0  0  0  0  0  0
    0.0803    0.1589    1.3373 C   0  0  0  0  0  0  0  0  0  0  0  0
    0.7402   -0.3098    0.1864 C   0  0  0  0  0  0  0  0  0  0  0  0
   -0.0164   -0.5593   -0.9726 C   0  0  0  0  0  0  0  0  0  0  0  0
   -1.3978   -0.3481   -0.9785 C   0  0  0  0  0  0  0  0  0  0  0  0
    2.1683   -0.5314    0.1928 N   0  0  0  0  0  0  0  0  0  0  0  0
    2.7282   -1.6885   -0.5230 C   0  0  0  0  0  0  0  0  0  0  0  0
    4.1336   -2.0354   -0.0221 C   0  0  0  0  0  0  0  0  0  0  0  0
    4.9928   -0.8433   -0.0185 N   0  0  0  0  0  0  0  0  0  0  0  0
    4.4246    0.4665    0.3389 C   0  0  0  0  0  0  0  0  0  0  0  0
    3.0484    0.3274    0.9984 C   0  0  0  0  0  0  0  0  0  0  0  0
    6.4179   -1.0032   -0.1888 C   0  0  0  0  0  0  0  0  0  0  0  0
    6.9461   -2.1288    0.0245 O   0  0  0  0  0  0  0  0  0  0  0  0
    7.2852    0.1122   -0.6205 C   0  0  0  0  0  0  0  0  0  0  0  0
    8.6660    0.0799   -0.6769 C   0  0  0  0  0  0  0  0  0  0  0  0
    9.0509    1.3187   -1.1418 C   0  0  0  0  0  0  0  0  0  0  0  0
    7.8861    2.0297   -1.3436 C   0  0  0  0  0  0  0  0  0  0  0  0
    6.8529    1.2843   -1.0262 O   0  0  0  0  0  0  0  0  0  0  0  0
   -8.6950    1.9321    3.4128 Cl  0  0  0  0  0  0  0  0  0  0  0  0
   -6.8764   -0.2880   -2.8798 H   0  0  0  0  0  0  0  0  0  0  0  0
   -5.7136   -1.6635   -2.9649 H   0  0  0  0  0  0  0  0  0  0  0  0
   -7.2925   -1.8927   -2.1246 H   0  0  0  0  0  0  0  0  0  0  0  0
   -8.4935   -0.0442   -1.0307 H   0  0  0  0  0  0  0  0  0  0  0  0
   -9.6293    1.0482    0.8405 H   0  0  0  0  0  0  0  0  0  0  0  0
   -5.9614    1.1574    3.0603 H   0  0  0  0  0  0  0  0  0  0  0  0
   -3.8719    0.6849   -0.7637 H   0  0  0  0  0  0  0  0  0  0  0  0
   -1.7732    0.7641    2.2192 H   0  0  0  0  0  0  0  0  0  0  0  0
    0.6319    0.3579    2.2468 H   0  0  0  0  0  0  0  0  0  0  0  0
    0.4615   -0.9028   -1.8802 H   0  0  0  0  0  0  0  0  0  0  0  0
   -1.9608   -0.5404   -1.8835 H   0  0  0  0  0  0  0  0  0  0  0  0
    2.7761   -1.4592   -1.6092 H   0  0  0  0  0  0  0  0  0  0  0  0
    2.0744   -2.5758   -0.3758 H   0  0  0  0  0  0  0  0  0  0  0  0
    4.5570   -2.8188   -0.6884 H   0  0  0  0  0  0  0  0  0  0  0  0
    4.0740   -2.4470    1.0088 H   0  0  0  0  0  0  0  0  0  0  0  0
    5.0979    0.9909    1.0519 H   0  0  0  0  0  0  0  0  0  0  0  0
    4.3234    1.0831   -0.5797 H   0  0  0  0  0  0  0  0  0  0  0  0
    3.1624   -0.1134    2.0124 H   0  0  0  0  0  0  0  0  0  0  0  0
    2.6091    1.3438    1.1025 H   0  0  0  0  0  0  0  0  0  0  0  0
    9.3159   -0.7439   -0.4124 H   0  0  0  0  0  0  0  0  0  0  0  0
   10.0615    1.6632   -1.3151 H   0  0  0  0  0  0  0  0  0  0  0  0
    7.8176    3.0459   -1.7079 H   0  0  0  0  0  0  0  0  0  0  0  0
  1  2  1  0
  2  3  1  0
  3  4  2  0
  4  5  1  0
  5  6  2  0
  6  7  1  0
  7  8  2  0
  8  9  1  0
  9 10  2  0
  9 11  1  0
 11 12  1  0
 12 13  2  0
 13 14  1  0
 14 15  2  0
 15 16  1  0
 16 17  2  0
 15 18  1  0
 18 19  1  0
 19 20  1  0
 20 21  1  0
 21 22  1  0
 22 23  1  0
 21 24  1  0
 24 25  2  0
 24 26  1  0
 26 27  2  0
 27 28  1  0
 28 29  2  0
 29 30  1  0
  6 31  1  0
  8  3  1  0
 17 12  1  0
 23 18  1  0
 30 26  1  0
  1 32  1  0
  1 33  1  0
  1 34  1  0
  4 35  1  0
  5 36  1  0
  7 37  1  0
 11 38  1  0
 13 39  1  0
 14 40  1  0
 16 41  1  0
 17 42  1  0
 19 43  1  0
 19 44  1  0
 20 45  1  0
 20 46  1  0
 22 47  1  0
 22 48  1  0
 23 49  1  0
 23 50  1  0
 27 51  1  0
 28 52  1  0
 29 53  1  0
M  END
$$$$
