
     RDKit          3D

 53 56  0  0  0  0  0  0  0  0999 V2000
   -6.6024   -0.9622   -2.1929 C   0  0  0  0  0  0  0  0  0  0  0  0
   -5.9170   -0.8358   -0.9514 O   0  0  0  0  0  0  0  0  0  0  0  0
   -6.5373   -0.5722    0.2814 C   0  0  0  0  0  0  0  0  0  0  0  0
   -7.9365   -0.4390    0.3895 C   0  0  0  0  0  0  0  0  0  0  0  0
   -8.5349   -0.2309    1.6337 C   0  0  0  0  0  0  0  0  0  0  0  0
   -7.7503   -0.1570    2.7854 C   0  0  0  0  0  0  0  0  0  0  0  0
   -6.3617   -0.2787    2.6927 C   0  0  0  0  0  0  0  0  0  0  0  0
   -5.7432   -0.4665    1.4451 C   0  0  0  0  0  0  0  0  0  0  0  0
   -4.2697   -0.5771    1.3865 C   0  0  0  0  0  0  0  0  0  0  0  0
   -3.6783   -1.2993    2.2343 O   0  0  0  0  0  0  0  0  0  0  0  0
   -3.5195    0.1306    0.3828 N   0  0  0  0  0  0  0  0  0  0  0  0
   -2.0890    0.0718    0.2565 C   0  0  0  0  0  0  0  0  0  0  0  0
   -1.2505    0.0956    1.3833 C   0  0  0  0  0  0  0  0  0  0  0  0
    0.1387    0.0637    1.2317 C   0  0  0  0  0  0  0  0  0  0  0  0
    0.7186    0.0187   -0.0488 C   0  0  0  0  0  0  0  0  0  0  0  0
   -0.1253    0.0239   -1.1743 C   0  0  0  0  0  0  0  0  0  0  0  0
   -1.5139    0.0580   -1.0210 C   0  0  0  0  0  0  0  0  0  0  0  0
    2.1550   -0.0109   -0.2046 N   0  0  0  0  0  0  0  0  0  0  0  0
    2.7635   -0.7447   -1.3252 C   0  0  0  0  0  0  0  0  0  0  0  0
    4.1269   -1.3179   -0.9219 C   0  0  0  0  0  0  0  0  0  0  0  0
    4.9722   -0.3067   -0.2721 N   0  0  0  0  0  0  0  0  0  0  0  0
    4.4047    0.9937    0.1071 C   0  0  0  0  0  0  0  0  0  0  0  0
    2.9988    0.8062    0.6835 C   0  0  0  0  0  0  0  0  0  0  0  0
    6.3277   -0.6530    0.0708 C   0  0  0  0  0  0  0  0  0  0  0  0
    6.5923   -1.8295    0.4379 O   0  0  0  0  0  0  0  0  0  0  0  0
    7.4301    0.3229   -0.0047 C   0  0  0  0  0  0  0  0  0  0  0  0
    7.4422    1.5091   -0.7156 C   0  0  0  0  0  0  0  0  0  0  0  0
    8.6871    2.0595   -0.5009 C   0  0  0  0  0  0  0  0  0  0  0  0
    9.3597    1.1778    0.3195 C   0  0  0  0  0  0  0  0  0  0  0  0
    8.5868    0.1525    0.5942 O   0  0  0  0  0  0  0  0  0  0  0  0
   -8.5074    0.0937    4.3479 Cl  0  0  0  0  0  0  0  0  0  0  0  0
   -7.1387   -0.0193   -2.4306 H   0  0  0  0  0  0  0  0  0  0  0  0
   -7.3178   -1.8103   -2.1497 H   0  0  0  0  0  0  0  0  0  0  0  0
   -5.8632   -1.1619   -2.9954 H   0  0  0  0  0  0  0  0  0  0  0  0
   -8.5732   -0.5070   -0.4818 H   0  0  0  0  0  0  0  0  0  0  0  0
   -9.6111   -0.1350    1.7020 H   0  0  0  0  0  0  0  0  0  0  0  0
   -5.7625   -0.2098    3.5929 H   0  0  0  0  0  0  0  0  0  0  0  0
   -4.0408    0.6761   -0.3395 H   0  0  0  0  0  0  0  0  0  0  0  0
   -1.6642    0.1659    2.3802 H   0  0  0  0  0  0  0  0  0  0  0  0
    0.7585    0.0694    2.1182 H   0  0  0  0  0  0  0  0  0  0  0  0
    0.2885    0.0202   -2.1742 H   0  0  0  0  0  0  0  0  0  0  0  0
   -2.1455    0.0659   -1.9007 H   0  0  0  0  0  0  0  0  0  0  0  0
    2.1103   -1.5883   -1.6390 H   0  0  0  0  0  0  0  0  0  0  0  0
    2.8883   -0.0562   -2.1888 H   0  0  0  0  0  0  0  0  0  0  0  0
    3.9695   -2.1674   -0.2220 H   0  0  0  0  0  0  0  0  0  0  0  0
    4.6377   -1.7012   -1.8317 H   0  0  0  0  0  0  0  0  0  0  0  0
    5.0373    1.4959    0.8712 H   0  0  0  0  0  0  0  0  0  0  0  0
    4.3475    1.6460   -0.7905 H   0  0  0  0  0  0  0  0  0  0  0  0
    2.5383    1.8085    0.8241 H   0  0  0  0  0  0  0  0  0  0  0  0
    3.0785    0.3093    1.6741 H   0  0  0  0  0  0  0  0  0  0  0  0
    6.6596    1.9169   -1.3396 H   0  0  0  0  0  0  0  0  0  0  0  0
    9.0651    2.9891   -0.9047 H   0  0  0  0  0  0  0  0  0  0  0  0
   10.3705    1.2968    0.6859 H   0  0  0  0  0  0  0  0  0  0  0  0
  1  2  1  0
  2  3  1  0
  3  4  2  0
  4  5  1  0
  5  6  2  0
  6  7  1  0
  7  8  2  0
  8  9  1  0
  9 10  2  0
  9 11  1  0
 11 12  1  0
 12 13  2  0
 13 14  1  0
 14 15  2  0
 15 16  1  0
 16 17  2  0
 15 18  1  0
 18 19  1  0
 19 20  1  0
 20 21  1  0
 21 22  1  0
 22 23  1  0
 21 24  1  0
 24 25  2  0
 24 26  1  0
 26 27  2  0
 27 28  1  0
 28 29  2  0
 29 30  1  0
  6 31  1  0
  8  3  1  0
 17 12  1  0
 23 18  1  0
 30 26  1  0
  1 32  1  0
  1 33  1  0
  1 34  1  0
  4 35  1  0
  5 36  1  0
  7 37  1  0
 11 38  1  0
 13 39  1  0
 14 40  1  0
 16 41  1  0
 17 42  1  0
 19 43  1  0
 19 44  1  0
 20 45  1  0
 20 46  1  0
 22 47  1  0
 22 48  1  0
 23 49  1  0
 23 50  1  0
 27 51  1  0
 28 52  1  0
 29 53  1  0
M  END
$$$$
