
     RDKit          3D

 53 56  0  0  0  0  0  0  0  0999 V2000
   -6.5965    0.9412    2.1893 C   0  0  0  0  0  0  0  0  0  0  0  0
   -5.8736    0.1872    1.2218 O   0  0  0  0  0  0  0  0  0  0  0  0
   -6.4531   -0.4673    0.1219 C   0  0  0  0  0  0  0  0  0  0  0  0
   -7.8458   -0.4511   -0.0961 C   0  0  0  0  0  0  0  0  0  0  0  0
   -8.4041   -1.1537   -1.1657 C   0  0  0  0  0  0  0  0  0  0  0  0
   -7.5857   -1.8841   -2.0283 C   0  0  0  0  0  0  0  0  0  0  0  0
   -6.2031   -1.9025   -1.8297 C   0  0  0  0  0  0  0  0  0  0  0  0
   -5.6242   -1.1826   -0.7709 C   0  0  0  0  0  0  0  0  0  0  0  0
   -4.1555   -1.2157   -0.6020 C   0  0  0  0  0  0  0  0  0  0  0  0
   -3.5547   -2.3196   -0.7052 O   0  0  0  0  0  0  0  0  0  0  0  0
   -3.4202   -0.0091   -0.3290 N   0  0  0  0  0  0  0  0  0  0  0  0
   -1.9953    0.0416   -0.1480 C   0  0  0  0  0  0  0  0  0  0  0  0
   -1.1247   -0.7089   -0.9570 C   0  0  0  0  0  0  0  0  0  0  0  0
    0.2588   -0.6209   -0.7769 C   0  0  0  0  0  0  0  0  0  0  0  0
    0.7957    0.2270    0.2059 C   0  0  0  0  0  0  0  0  0  0  0  0
   -0.0740    0.9957    0.9946 C   0  0  0  0  0  0  0  0  0  0  0  0
   -1.4569    0.9091    0.8127 C   0  0  0  0  0  0  0  0  0  0  0  0
    2.2200    0.3246    0.3953 N   0  0  0  0  0  0  0  0  0  0  0  0
    2.8031    0.0571    1.7157 C   0  0  0  0  0  0  0  0  0  0  0  0
    3.9638    1.0161    1.9823 C   0  0  0  0  0  0  0  0  0  0  0  0
    4.8700    1.0379    0.8298 N   0  0  0  0  0  0  0  0  0  0  0  0
    4.2877    1.3105   -0.4896 C   0  0  0  0  0  0  0  0  0  0  0  0
    3.1246    0.3551   -0.7604 C   0  0  0  0  0  0  0  0  0  0  0  0
    6.2750    1.2503    1.0439 C   0  0  0  0  0  0  0  0  0  0  0  0
    6.6569    2.0552    1.9355 O   0  0  0  0  0  0  0  0  0  0  0  0
    7.2847    0.5238    0.2576 C   0  0  0  0  0  0  0  0  0  0  0  0
    7.0574   -0.5617   -0.5672 C   0  0  0  0  0  0  0  0  0  0  0  0
    8.2919   -0.9106   -1.0705 C   0  0  0  0  0  0  0  0  0  0  0  0
    9.1946   -0.0232   -0.5209 C   0  0  0  0  0  0  0  0  0  0  0  0
    8.5649    0.8170    0.2677 O   0  0  0  0  0  0  0  0  0  0  0  0
   -8.2929   -2.7742   -3.3644 Cl  0  0  0  0  0  0  0  0  0  0  0  0
   -7.1204    1.7887    1.6991 H   0  0  0  0  0  0  0  0  0  0  0  0
   -7.3271    0.2895    2.7134 H   0  0  0  0  0  0  0  0  0  0  0  0
   -5.8846    1.3483    2.9361 H   0  0  0  0  0  0  0  0  0  0  0  0
   -8.5082    0.0924    0.5634 H   0  0  0  0  0  0  0  0  0  0  0  0
   -9.4759   -1.1359   -1.3180 H   0  0  0  0  0  0  0  0  0  0  0  0
   -5.5772   -2.4652   -2.5122 H   0  0  0  0  0  0  0  0  0  0  0  0
   -3.9509    0.8802   -0.1935 H   0  0  0  0  0  0  0  0  0  0  0  0
   -1.5082   -1.3423   -1.7454 H   0  0  0  0  0  0  0  0  0  0  0  0
    0.9108   -1.2177   -1.4019 H   0  0  0  0  0  0  0  0  0  0  0  0
    0.3206    1.6752    1.7393 H   0  0  0  0  0  0  0  0  0  0  0  0
   -2.1126    1.5133    1.4274 H   0  0  0  0  0  0  0  0  0  0  0  0
    3.1763   -0.9898    1.7410 H   0  0  0  0  0  0  0  0  0  0  0  0
    2.0476    0.1681    2.5228 H   0  0  0  0  0  0  0  0  0  0  0  0
    3.5696    2.0402    2.1609 H   0  0  0  0  0  0  0  0  0  0  0  0
    4.5017    0.6806    2.8963 H   0  0  0  0  0  0  0  0  0  0  0  0
    3.9163    2.3582   -0.5120 H   0  0  0  0  0  0  0  0  0  0  0  0
    5.0439    1.2027   -1.2959 H   0  0  0  0  0  0  0  0  0  0  0  0
    2.5875    0.7001   -1.6710 H   0  0  0  0  0  0  0  0  0  0  0  0
    3.5161   -0.6681   -0.9477 H   0  0  0  0  0  0  0  0  0  0  0  0
    6.1144   -1.0519   -0.7687 H   0  0  0  0  0  0  0  0  0  0  0  0
    8.5101   -1.7211   -1.7528 H   0  0  0  0  0  0  0  0  0  0  0  0
   10.2612   -0.0102   -0.7006 H   0  0  0  0  0  0  0  0  0  0  0  0
  1  2  1  0
  2  3  1  0
  3  4  2  0
  4  5  1  0
  5  6  2  0
  6  7  1  0
  7  8  2  0
  8  9  1  0
  9 10  2  0
  9 11  1  0
 11 12  1  0
 12 13  2  0
 13 14  1  0
 14 15  2  0
 15 16  1  0
 16 17  2  0
 15 18  1  0
 18 19  1  0
 19 20  1  0
 20 21  1  0
 21 22  1  0
 22 23  1  0
 21 24  1  0
 24 25  2  0
 24 26  1  0
 26 27  2  0
 27 28  1  0
 28 29  2  0
 29 30  1  0
  6 31  1  0
  8  3  1  0
 17 12  1  0
 23 18  1  0
 30 26  1  0
  1 32  1  0
  1 33  1  0
  1 34  1  0
  4 35  1  0
  5 36  1  0
  7 37  1  0
 11 38  1  0
 13 39  1  0
 14 40  1  0
 16 41  1  0
 17 42  1  0
 19 43  1  0
 19 44  1  0
 20 45  1  0
 20 46  1  0
 22 47  1  0
 22 48  1  0
 23 49  1  0
 23 50  1  0
 27 51  1  0
 28 52  1  0
 29 53  1  0
M  END
$$$$
