
     RDKit          3D

 53 56  0  0  0  0  0  0  0  0999 V2000
   -5.6323    1.7882    2.2374 C   0  0  0  0  0  0  0  0  0  0  0  0
   -5.3192    0.7531    1.3113 O   0  0  0  0  0  0  0  0  0  0  0  0
   -6.2639   -0.0929    0.7062 C   0  0  0  0  0  0  0  0  0  0  0  0
   -7.6384    0.0096    1.0022 C   0  0  0  0  0  0  0  0  0  0  0  0
   -8.5559   -0.8702    0.4258 C   0  0  0  0  0  0  0  0  0  0  0  0
   -8.1186   -1.8645   -0.4493 C   0  0  0  0  0  0  0  0  0  0  0  0
   -6.7609   -1.9744   -0.7585 C   0  0  0  0  0  0  0  0  0  0  0  0
   -5.8244   -1.0853   -0.2005 C   0  0  0  0  0  0  0  0  0  0  0  0
   -4.3934   -1.2232   -0.5619 C   0  0  0  0  0  0  0  0  0  0  0  0
   -3.9320   -2.3645   -0.8377 O   0  0  0  0  0  0  0  0  0  0  0  0
   -3.5495   -0.0655   -0.6721 N   0  0  0  0  0  0  0  0  0  0  0  0
   -2.1132   -0.1122   -0.6190 C   0  0  0  0  0  0  0  0  0  0  0  0
   -1.3670    0.8642   -1.2947 C   0  0  0  0  0  0  0  0  0  0  0  0
    0.0295    0.8543   -1.2399 C   0  0  0  0  0  0  0  0  0  0  0  0
    0.7045   -0.1281   -0.4969 C   0  0  0  0  0  0  0  0  0  0  0  0
   -0.0419   -1.0911    0.1994 C   0  0  0  0  0  0  0  0  0  0  0  0
   -1.4386   -1.0812    0.1445 C   0  0  0  0  0  0  0  0  0  0  0  0
    2.1431   -0.1422   -0.4320 N   0  0  0  0  0  0  0  0  0  0  0  0
    2.8917    1.1157   -0.2946 C   0  0  0  0  0  0  0  0  0  0  0  0
    4.1215    0.9061    0.5934 C   0  0  0  0  0  0  0  0  0  0  0  0
    4.8499   -0.2878    0.1511 N   0  0  0  0  0  0  0  0  0  0  0  0
    4.0941   -1.5411    0.0777 C   0  0  0  0  0  0  0  0  0  0  0  0
    2.8805   -1.3495   -0.8312 C   0  0  0  0  0  0  0  0  0  0  0  0
    6.1272   -0.1709   -0.4999 C   0  0  0  0  0  0  0  0  0  0  0  0
    6.3167   -0.7382   -1.6093 O   0  0  0  0  0  0  0  0  0  0  0  0
    7.2338    0.5833    0.1118 C   0  0  0  0  0  0  0  0  0  0  0  0
    7.2952    1.0426    1.4142 C   0  0  0  0  0  0  0  0  0  0  0  0
    8.5175    1.6683    1.5303 C   0  0  0  0  0  0  0  0  0  0  0  0
    9.1276    1.5493    0.2983 C   0  0  0  0  0  0  0  0  0  0  0  0
    8.3396    0.8960   -0.5243 O   0  0  0  0  0  0  0  0  0  0  0  0
   -9.2747   -2.9729   -1.1652 Cl  0  0  0  0  0  0  0  0  0  0  0  0
   -6.3003    2.5369    1.7616 H   0  0  0  0  0  0  0  0  0  0  0  0
   -4.6943    2.2942    2.5448 H   0  0  0  0  0  0  0  0  0  0  0  0
   -6.1169    1.3597    3.1399 H   0  0  0  0  0  0  0  0  0  0  0  0
   -8.0082    0.7609    1.6862 H   0  0  0  0  0  0  0  0  0  0  0  0
   -9.6079   -0.7814    0.6659 H   0  0  0  0  0  0  0  0  0  0  0  0
   -6.4391   -2.7452   -1.4486 H   0  0  0  0  0  0  0  0  0  0  0  0
   -4.0040    0.8479   -0.9004 H   0  0  0  0  0  0  0  0  0  0  0  0
   -1.8693    1.6285   -1.8743 H   0  0  0  0  0  0  0  0  0  0  0  0
    0.5842    1.6063   -1.7864 H   0  0  0  0  0  0  0  0  0  0  0  0
    0.4585   -1.8366    0.8044 H   0  0  0  0  0  0  0  0  0  0  0  0
   -1.9879   -1.8142    0.7201 H   0  0  0  0  0  0  0  0  0  0  0  0
    2.2541    1.9037    0.1628 H   0  0  0  0  0  0  0  0  0  0  0  0
    3.2139    1.4619   -1.3007 H   0  0  0  0  0  0  0  0  0  0  0  0
    3.7963    0.7656    1.6470 H   0  0  0  0  0  0  0  0  0  0  0  0
    4.7607    1.8137    0.5463 H   0  0  0  0  0  0  0  0  0  0  0  0
    3.7471   -1.8172    1.0971 H   0  0  0  0  0  0  0  0  0  0  0  0
    4.7272   -2.3728   -0.3016 H   0  0  0  0  0  0  0  0  0  0  0  0
    2.2384   -2.2544   -0.7755 H   0  0  0  0  0  0  0  0  0  0  0  0
    3.2206   -1.2364   -1.8834 H   0  0  0  0  0  0  0  0  0  0  0  0
    6.5520    0.9261    2.1917 H   0  0  0  0  0  0  0  0  0  0  0  0
    8.9205    2.1489    2.4116 H   0  0  0  0  0  0  0  0  0  0  0  0
   10.1059    1.9286    0.0354 H   0  0  0  0  0  0  0  0  0  0  0  0
  1  2  1  0
  2  3  1  0
  3  4  2  0
  4  5  1  0
  5  6  2  0
  6  7  1  0
  7  8  2  0
  8  9  1  0
  9 10  2  0
  9 11  1  0
 11 12  1  0
 12 13  2  0
 13 14  1  0
 14 15  2  0
 15 16  1  0
 16 17  2  0
 15 18  1  0
 18 19  1  0
 19 20  1  0
 20 21  1  0
 21 22  1  0
 22 23  1  0
 21 24  1  0
 24 25  2  0
 24 26  1  0
 26 27  2  0
 27 28  1  0
 28 29  2  0
 29 30  1  0
  6 31  1  0
  8  3  1  0
 17 12  1  0
 23 18  1  0
 30 26  1  0
  1 32  1  0
  1 33  1  0
  1 34  1  0
  4 35  1  0
  5 36  1  0
  7 37  1  0
 11 38  1  0
 13 39  1  0
 14 40  1  0
 16 41  1  0
 17 42  1  0
 19 43  1  0
 19 44  1  0
 20 45  1  0
 20 46  1  0
 22 47  1  0
 22 48  1  0
 23 49  1  0
 23 50  1  0
 27 51  1  0
 28 52  1  0
 29 53  1  0
M  END
$$$$
