
     RDKit          3D

 53 56  0  0  0  0  0  0  0  0999 V2000
    6.0224    0.1910    2.7518 C   0  0  0  0  0  0  0  0  0  0  0  0
    5.5492    0.4010    1.4255 O   0  0  0  0  0  0  0  0  0  0  0  0
    6.3651    0.7073    0.3232 C   0  0  0  0  0  0  0  0  0  0  0  0
    7.7599    0.8590    0.4609 C   0  0  0  0  0  0  0  0  0  0  0  0
    8.5474    1.2088   -0.6371 C   0  0  0  0  0  0  0  0  0  0  0  0
    7.9583    1.4152   -1.8845 C   0  0  0  0  0  0  0  0  0  0  0  0
    6.5785    1.2615   -2.0389 C   0  0  0  0  0  0  0  0  0  0  0  0
    5.7719    0.8923   -0.9472 C   0  0  0  0  0  0  0  0  0  0  0  0
    4.3131    0.7251   -1.1511 C   0  0  0  0  0  0  0  0  0  0  0  0
    3.7264    1.4221   -2.0238 O   0  0  0  0  0  0  0  0  0  0  0  0
    3.5792   -0.2701   -0.4194 N   0  0  0  0  0  0  0  0  0  0  0  0
    2.1520   -0.2471   -0.2451 C   0  0  0  0  0  0  0  0  0  0  0  0
    1.4592   -1.4538   -0.0773 C   0  0  0  0  0  0  0  0  0  0  0  0
    0.0752   -1.4575    0.1159 C   0  0  0  0  0  0  0  0  0  0  0  0
   -0.6444   -0.2496    0.1581 C   0  0  0  0  0  0  0  0  0  0  0  0
    0.0567    0.9610    0.0159 C   0  0  0  0  0  0  0  0  0  0  0  0
    1.4407    0.9631   -0.1792 C   0  0  0  0  0  0  0  0  0  0  0  0
   -2.0745   -0.2505    0.3642 N   0  0  0  0  0  0  0  0  0  0  0  0
   -2.9011   -1.3349   -0.1902 C   0  0  0  0  0  0  0  0  0  0  0  0
   -4.2886   -0.8145   -0.5850 C   0  0  0  0  0  0  0  0  0  0  0  0
   -4.8809    0.0110    0.4770 N   0  0  0  0  0  0  0  0  0  0  0  0
   -4.0986    0.3588    1.6671 C   0  0  0  0  0  0  0  0  0  0  0  0
   -2.6774    0.7528    1.2586 C   0  0  0  0  0  0  0  0  0  0  0  0
   -6.1656    0.6164    0.2681 C   0  0  0  0  0  0  0  0  0  0  0  0
   -6.2761    1.8708    0.3129 O   0  0  0  0  0  0  0  0  0  0  0  0
   -7.3631   -0.1984    0.0118 C   0  0  0  0  0  0  0  0  0  0  0  0
   -7.4967   -1.5555    0.2364 C   0  0  0  0  0  0  0  0  0  0  0  0
   -8.7886   -1.8669   -0.1284 C   0  0  0  0  0  0  0  0  0  0  0  0
   -9.3643   -0.6847   -0.5470 C   0  0  0  0  0  0  0  0  0  0  0  0
   -8.4914    0.2914   -0.4486 O   0  0  0  0  0  0  0  0  0  0  0  0
    8.9513    1.8623   -3.2599 Cl  0  0  0  0  0  0  0  0  0  0  0  0
    6.5232    1.1078    3.1284 H   0  0  0  0  0  0  0  0  0  0  0  0
    6.7258   -0.6679    2.7747 H   0  0  0  0  0  0  0  0  0  0  0  0
    5.1604   -0.0387    3.4110 H   0  0  0  0  0  0  0  0  0  0  0  0
    8.2456    0.7187    1.4166 H   0  0  0  0  0  0  0  0  0  0  0  0
    9.6168    1.3254   -0.5149 H   0  0  0  0  0  0  0  0  0  0  0  0
    6.1383    1.4147   -3.0169 H   0  0  0  0  0  0  0  0  0  0  0  0
    4.1031   -1.1081   -0.0786 H   0  0  0  0  0  0  0  0  0  0  0  0
    1.9934   -2.3954   -0.1016 H   0  0  0  0  0  0  0  0  0  0  0  0
   -0.4297   -2.4051    0.2508 H   0  0  0  0  0  0  0  0  0  0  0  0
   -0.4651    1.9078    0.0485 H   0  0  0  0  0  0  0  0  0  0  0  0
    1.9543    1.9121   -0.2568 H   0  0  0  0  0  0  0  0  0  0  0  0
   -3.0069   -2.1390    0.5699 H   0  0  0  0  0  0  0  0  0  0  0  0
   -2.4210   -1.7682   -1.0950 H   0  0  0  0  0  0  0  0  0  0  0  0
   -4.1942   -0.2014   -1.5077 H   0  0  0  0  0  0  0  0  0  0  0  0
   -4.9420   -1.6812   -0.8127 H   0  0  0  0  0  0  0  0  0  0  0  0
   -4.0595   -0.5213    2.3447 H   0  0  0  0  0  0  0  0  0  0  0  0
   -4.5676    1.1978    2.2266 H   0  0  0  0  0  0  0  0  0  0  0  0
   -2.0602    0.8581    2.1774 H   0  0  0  0  0  0  0  0  0  0  0  0
   -2.7136    1.7344    0.7394 H   0  0  0  0  0  0  0  0  0  0  0  0
   -6.7576   -2.2346    0.6401 H   0  0  0  0  0  0  0  0  0  0  0  0
   -9.2597   -2.8397   -0.0847 H   0  0  0  0  0  0  0  0  0  0  0  0
  -10.3791   -0.5637   -0.9015 H   0  0  0  0  0  0  0  0  0  0  0  0
  1  2  1  0
  2  3  1  0
  3  4  2  0
  4  5  1  0
  5  6  2  0
  6  7  1  0
  7  8  2  0
  8  9  1  0
  9 10  2  0
  9 11  1  0
 11 12  1  0
 12 13  2  0
 13 14  1  0
 14 15  2  0
 15 16  1  0
 16 17  2  0
 15 18  1  0
 18 19  1  0
 19 20  1  0
 20 21  1  0
 21 22  1  0
 22 23  1  0
 21 24  1  0
 24 25  2  0
 24 26  1  0
 26 27  2  0
 27 28  1  0
 28 29  2  0
 29 30  1  0
  6 31  1  0
  8  3  1  0
 17 12  1  0
 23 18  1  0
 30 26  1  0
  1 32  1  0
  1 33  1  0
  1 34  1  0
  4 35  1  0
  5 36  1  0
  7 37  1  0
 11 38  1  0
 13 39  1  0
 14 40  1  0
 16 41  1  0
 17 42  1  0
 19 43  1  0
 19 44  1  0
 20 45  1  0
 20 46  1  0
 22 47  1  0
 22 48  1  0
 23 49  1  0
 23 50  1  0
 27 51  1  0
 28 52  1  0
 29 53  1  0
M  END
$$$$
