
     RDKit          3D

 53 56  0  0  0  0  0  0  0  0999 V2000
    6.3073    1.8585    0.0965 C   0  0  0  0  0  0  0  0  0  0  0  0
    5.5338    0.6982   -0.1904 O   0  0  0  0  0  0  0  0  0  0  0  0
    6.0516   -0.5027   -0.7042 C   0  0  0  0  0  0  0  0  0  0  0  0
    7.4293   -0.6597   -0.9587 C   0  0  0  0  0  0  0  0  0  0  0  0
    7.9306   -1.8758   -1.4255 C   0  0  0  0  0  0  0  0  0  0  0  0
    7.0697   -2.9517   -1.6422 C   0  0  0  0  0  0  0  0  0  0  0  0
    5.7010   -2.8099   -1.4018 C   0  0  0  0  0  0  0  0  0  0  0  0
    5.1760   -1.5863   -0.9479 C   0  0  0  0  0  0  0  0  0  0  0  0
    3.7166   -1.4681   -0.7165 C   0  0  0  0  0  0  0  0  0  0  0  0
    3.0631   -2.4848   -0.3548 O   0  0  0  0  0  0  0  0  0  0  0  0
    3.0311   -0.2311   -0.9704 N   0  0  0  0  0  0  0  0  0  0  0  0
    1.7461    0.1018   -0.4173 C   0  0  0  0  0  0  0  0  0  0  0  0
    0.8971    0.9679   -1.1209 C   0  0  0  0  0  0  0  0  0  0  0  0
   -0.3474    1.3246   -0.5945 C   0  0  0  0  0  0  0  0  0  0  0  0
   -0.7578    0.8347    0.6560 C   0  0  0  0  0  0  0  0  0  0  0  0
    0.0977   -0.0213    1.3679 C   0  0  0  0  0  0  0  0  0  0  0  0
    1.3425   -0.3779    0.8411 C   0  0  0  0  0  0  0  0  0  0  0  0
   -2.0460    1.1914    1.1929 N   0  0  0  0  0  0  0  0  0  0  0  0
   -2.9474    0.1349    1.6793 C   0  0  0  0  0  0  0  0  0  0  0  0
   -4.3508    0.6804    1.9765 C   0  0  0  0  0  0  0  0  0  0  0  0
   -4.7640    1.6206    0.9249 N   0  0  0  0  0  0  0  0  0  0  0  0
   -3.8556    2.6966    0.5004 C   0  0  0  0  0  0  0  0  0  0  0  0
   -2.4959    2.5895    1.1972 C   0  0  0  0  0  0  0  0  0  0  0  0
   -6.1252    1.6416    0.4631 C   0  0  0  0  0  0  0  0  0  0  0  0
   -6.7651    2.7273    0.4609 O   0  0  0  0  0  0  0  0  0  0  0  0
   -6.7879    0.4257   -0.0366 C   0  0  0  0  0  0  0  0  0  0  0  0
   -6.1734   -0.7599   -0.3930 C   0  0  0  0  0  0  0  0  0  0  0  0
   -7.1869   -1.5913   -0.8176 C   0  0  0  0  0  0  0  0  0  0  0  0
   -8.3536   -0.8640   -0.7002 C   0  0  0  0  0  0  0  0  0  0  0  0
   -8.0830    0.3341   -0.2356 O   0  0  0  0  0  0  0  0  0  0  0  0
    7.7057   -4.4806   -2.2216 Cl  0  0  0  0  0  0  0  0  0  0  0  0
    5.6374    2.6530    0.4842 H   0  0  0  0  0  0  0  0  0  0  0  0
    6.7985    2.2282   -0.8283 H   0  0  0  0  0  0  0  0  0  0  0  0
    7.0696    1.6278    0.8703 H   0  0  0  0  0  0  0  0  0  0  0  0
    8.1248    0.1506   -0.7889 H   0  0  0  0  0  0  0  0  0  0  0  0
    8.9917   -1.9822   -1.6127 H   0  0  0  0  0  0  0  0  0  0  0  0
    5.0445   -3.6519   -1.5857 H   0  0  0  0  0  0  0  0  0  0  0  0
    3.4476    0.4203   -1.6740 H   0  0  0  0  0  0  0  0  0  0  0  0
    1.1952    1.3565   -2.0867 H   0  0  0  0  0  0  0  0  0  0  0  0
   -0.9977    1.9702   -1.1708 H   0  0  0  0  0  0  0  0  0  0  0  0
   -0.1866   -0.3955    2.3424 H   0  0  0  0  0  0  0  0  0  0  0  0
    1.9964   -1.0074    1.4297 H   0  0  0  0  0  0  0  0  0  0  0  0
   -3.0292   -0.6557    0.9026 H   0  0  0  0  0  0  0  0  0  0  0  0
   -2.5343   -0.3230    2.6027 H   0  0  0  0  0  0  0  0  0  0  0  0
   -5.0647   -0.1651    2.0722 H   0  0  0  0  0  0  0  0  0  0  0  0
   -4.3399    1.2145    2.9513 H   0  0  0  0  0  0  0  0  0  0  0  0
   -3.7032    2.6256   -0.5983 H   0  0  0  0  0  0  0  0  0  0  0  0
   -4.3026    3.6877    0.7312 H   0  0  0  0  0  0  0  0  0  0  0  0
   -2.5934    2.9327    2.2499 H   0  0  0  0  0  0  0  0  0  0  0  0
   -1.7627    3.2606    0.7004 H   0  0  0  0  0  0  0  0  0  0  0  0
   -5.1174   -0.9900   -0.3686 H   0  0  0  0  0  0  0  0  0  0  0  0
   -7.0868   -2.6059   -1.1789 H   0  0  0  0  0  0  0  0  0  0  0  0
   -9.3465   -1.2124   -0.9510 H   0  0  0  0  0  0  0  0  0  0  0  0
  1  2  1  0
  2  3  1  0
  3  4  2  0
  4  5  1  0
  5  6  2  0
  6  7  1  0
  7  8  2  0
  8  9  1  0
  9 10  2  0
  9 11  1  0
 11 12  1  0
 12 13  2  0
 13 14  1  0
 14 15  2  0
 15 16  1  0
 16 17  2  0
 15 18  1  0
 18 19  1  0
 19 20  1  0
 20 21  1  0
 21 22  1  0
 22 23  1  0
 21 24  1  0
 24 25  2  0
 24 26  1  0
 26 27  2  0
 27 28  1  0
 28 29  2  0
 29 30  1  0
  6 31  1  0
  8  3  1  0
 17 12  1  0
 23 18  1  0
 30 26  1  0
  1 32  1  0
  1 33  1  0
  1 34  1  0
  4 35  1  0
  5 36  1  0
  7 37  1  0
 11 38  1  0
 13 39  1  0
 14 40  1  0
 16 41  1  0
 17 42  1  0
 19 43  1  0
 19 44  1  0
 20 45  1  0
 20 46  1  0
 22 47  1  0
 22 48  1  0
 23 49  1  0
 23 50  1  0
 27 51  1  0
 28 52  1  0
 29 53  1  0
M  END
$$$$
