
     RDKit          3D

 53 56  0  0  0  0  0  0  0  0999 V2000
   -5.8435    2.3757    1.2206 C   0  0  0  0  0  0  0  0  0  0  0  0
   -5.4145    1.2173    0.5126 O   0  0  0  0  0  0  0  0  0  0  0  0
   -6.2554    0.3844   -0.2448 C   0  0  0  0  0  0  0  0  0  0  0  0
   -7.6402    0.6305   -0.3414 C   0  0  0  0  0  0  0  0  0  0  0  0
   -8.4660   -0.2347   -1.0608 C   0  0  0  0  0  0  0  0  0  0  0  0
   -7.9267   -1.3565   -1.6902 C   0  0  0  0  0  0  0  0  0  0  0  0
   -6.5554   -1.6102   -1.6101 C   0  0  0  0  0  0  0  0  0  0  0  0
   -5.7056   -0.7395   -0.9041 C   0  0  0  0  0  0  0  0  0  0  0  0
   -4.2534   -1.0328   -0.8515 C   0  0  0  0  0  0  0  0  0  0  0  0
   -3.8626   -2.2318   -0.8869 O   0  0  0  0  0  0  0  0  0  0  0  0
   -3.2897    0.0329   -0.8355 N   0  0  0  0  0  0  0  0  0  0  0  0
   -1.9303   -0.1220   -0.3927 C   0  0  0  0  0  0  0  0  0  0  0  0
   -0.9326    0.7039   -0.9303 C   0  0  0  0  0  0  0  0  0  0  0  0
    0.3920    0.5886   -0.5001 C   0  0  0  0  0  0  0  0  0  0  0  0
    0.7392   -0.3449    0.4894 C   0  0  0  0  0  0  0  0  0  0  0  0
   -0.2610   -1.1613    1.0401 C   0  0  0  0  0  0  0  0  0  0  0  0
   -1.5860   -1.0458    0.6098 C   0  0  0  0  0  0  0  0  0  0  0  0
    2.1057   -0.4712    0.9246 N   0  0  0  0  0  0  0  0  0  0  0  0
    2.8784    0.7129    1.3141 C   0  0  0  0  0  0  0  0  0  0  0  0
    4.1990    0.7320    0.5434 C   0  0  0  0  0  0  0  0  0  0  0  0
    4.8990   -0.5617    0.6391 N   0  0  0  0  0  0  0  0  0  0  0  0
    4.2378   -1.7041    1.2929 C   0  0  0  0  0  0  0  0  0  0  0  0
    2.7578   -1.7883    0.8918 C   0  0  0  0  0  0  0  0  0  0  0  0
    6.3058   -0.6537    0.3205 C   0  0  0  0  0  0  0  0  0  0  0  0
    7.0093   -1.5468    0.8677 O   0  0  0  0  0  0  0  0  0  0  0  0
    6.9575    0.2639   -0.6375 C   0  0  0  0  0  0  0  0  0  0  0  0
    8.3149    0.3241   -0.8930 C   0  0  0  0  0  0  0  0  0  0  0  0
    8.4731    1.3011   -1.8517 C   0  0  0  0  0  0  0  0  0  0  0  0
    7.2073    1.7755   -2.1256 C   0  0  0  0  0  0  0  0  0  0  0  0
    6.3275    1.1378   -1.3888 O   0  0  0  0  0  0  0  0  0  0  0  0
   -8.9701   -2.4453   -2.5868 Cl  0  0  0  0  0  0  0  0  0  0  0  0
   -4.9685    2.8376    1.7220 H   0  0  0  0  0  0  0  0  0  0  0  0
   -6.2797    3.1144    0.5155 H   0  0  0  0  0  0  0  0  0  0  0  0
   -6.5895    2.0962    1.9942 H   0  0  0  0  0  0  0  0  0  0  0  0
   -8.0914    1.4840    0.1454 H   0  0  0  0  0  0  0  0  0  0  0  0
   -9.5282   -0.0345   -1.1228 H   0  0  0  0  0  0  0  0  0  0  0  0
   -6.1509   -2.4798   -2.1139 H   0  0  0  0  0  0  0  0  0  0  0  0
   -3.5674    0.9465   -1.2608 H   0  0  0  0  0  0  0  0  0  0  0  0
   -1.1806    1.4300   -1.6944 H   0  0  0  0  0  0  0  0  0  0  0  0
    1.1499    1.2174   -0.9498 H   0  0  0  0  0  0  0  0  0  0  0  0
   -0.0215   -1.8712    1.8207 H   0  0  0  0  0  0  0  0  0  0  0  0
   -2.3418   -1.6609    1.0796 H   0  0  0  0  0  0  0  0  0  0  0  0
    3.0857    0.6687    2.4052 H   0  0  0  0  0  0  0  0  0  0  0  0
    2.3167    1.6520    1.1204 H   0  0  0  0  0  0  0  0  0  0  0  0
    3.9782    0.9518   -0.5227 H   0  0  0  0  0  0  0  0  0  0  0  0
    4.8390    1.5419    0.9567 H   0  0  0  0  0  0  0  0  0  0  0  0
    4.3197   -1.5889    2.3955 H   0  0  0  0  0  0  0  0  0  0  0  0
    4.7295   -2.6601    1.0083 H   0  0  0  0  0  0  0  0  0  0  0  0
    2.2410   -2.4878    1.5821 H   0  0  0  0  0  0  0  0  0  0  0  0
    2.6893   -2.1983   -0.1394 H   0  0  0  0  0  0  0  0  0  0  0  0
    9.0966   -0.2701   -0.4380 H   0  0  0  0  0  0  0  0  0  0  0  0
    9.4017    1.6284   -2.2998 H   0  0  0  0  0  0  0  0  0  0  0  0
    6.9606    2.5528   -2.8363 H   0  0  0  0  0  0  0  0  0  0  0  0
  1  2  1  0
  2  3  1  0
  3  4  2  0
  4  5  1  0
  5  6  2  0
  6  7  1  0
  7  8  2  0
  8  9  1  0
  9 10  2  0
  9 11  1  0
 11 12  1  0
 12 13  2  0
 13 14  1  0
 14 15  2  0
 15 16  1  0
 16 17  2  0
 15 18  1  0
 18 19  1  0
 19 20  1  0
 20 21  1  0
 21 22  1  0
 22 23  1  0
 21 24  1  0
 24 25  2  0
 24 26  1  0
 26 27  2  0
 27 28  1  0
 28 29  2  0
 29 30  1  0
  6 31  1  0
  8  3  1  0
 17 12  1  0
 23 18  1  0
 30 26  1  0
  1 32  1  0
  1 33  1  0
  1 34  1  0
  4 35  1  0
  5 36  1  0
  7 37  1  0
 11 38  1  0
 13 39  1  0
 14 40  1  0
 16 41  1  0
 17 42  1  0
 19 43  1  0
 19 44  1  0
 20 45  1  0
 20 46  1  0
 22 47  1  0
 22 48  1  0
 23 49  1  0
 23 50  1  0
 27 51  1  0
 28 52  1  0
 29 53  1  0
M  END
$$$$
