
     RDKit          3D

 68 71  0  0  0  0  0  0  0  0999 V2000
   -7.1122   -2.2439   -1.0258 C   0  0  0  0  0  0  0  0  0  0  0  0
   -5.7875   -2.6900   -0.5786 N   0  0  0  0  0  0  0  0  0  0  0  0
   -5.5250   -4.1354   -0.5063 C   0  0  0  0  0  0  0  0  0  0  0  0
   -4.0388   -4.4316   -0.6973 C   0  0  0  0  0  0  0  0  0  0  0  0
   -3.2139   -3.6751    0.3416 C   0  0  0  0  0  0  0  0  0  0  0  0
   -3.5280   -2.2012    0.3220 C   0  0  0  0  0  0  0  0  0  0  0  0
   -4.7953   -1.7425   -0.1008 C   0  0  0  0  0  0  0  0  0  0  0  0
   -5.0567   -0.3600   -0.0655 C   0  0  0  0  0  0  0  0  0  0  0  0
   -4.0911    0.5375    0.3906 C   0  0  0  0  0  0  0  0  0  0  0  0
   -2.8304    0.0915    0.8220 C   0  0  0  0  0  0  0  0  0  0  0  0
   -2.5702   -1.2920    0.7980 C   0  0  0  0  0  0  0  0  0  0  0  0
   -1.8075    1.1360    1.2874 C   0  0  1  0  0  0  0  0  0  0  0  0
   -0.6416    0.5926    2.1799 C   0  0  0  0  0  0  0  0  0  0  0  0
    0.4790    0.0234    1.4225 N   0  0  0  0  0  0  0  0  0  0  0  0
    1.8468    0.4085    1.6409 C   0  0  0  0  0  0  0  0  0  0  0  0
    2.1418    1.1929    2.5830 O   0  0  0  0  0  0  0  0  0  0  0  0
    2.9154   -0.1055    0.7627 C   0  0  0  0  0  0  0  0  0  0  0  0
    2.6182   -0.8765   -0.1898 O   0  0  0  0  0  0  0  0  0  0  0  0
    4.2793    0.3047    0.9602 N   0  0  0  0  0  0  0  0  0  0  0  0
    5.3973   -0.3002    0.2858 C   0  0  0  0  0  0  0  0  0  0  0  0
    5.4422   -1.6909    0.0777 C   0  0  0  0  0  0  0  0  0  0  0  0
    6.5407   -2.2777   -0.5557 C   0  0  0  0  0  0  0  0  0  0  0  0
    7.6094   -1.4845   -0.9758 C   0  0  0  0  0  0  0  0  0  0  0  0
    7.5866   -0.1053   -0.7589 C   0  0  0  0  0  0  0  0  0  0  0  0
    6.4838    0.4990   -0.1229 C   0  0  0  0  0  0  0  0  0  0  0  0
    6.4289    1.8834    0.1079 O   0  0  0  0  0  0  0  0  0  0  0  0
    7.4516    2.8044   -0.2570 C   0  0  0  0  0  0  0  0  0  0  0  0
    6.5829   -4.0128   -0.8112 Cl  0  0  0  0  0  0  0  0  0  0  0  0
   -1.3999    2.0583    0.1771 N   0  0  0  0  0  0  0  0  0  0  0  0
   -0.9740    1.3576   -1.0702 C   0  0  0  0  0  0  0  0  0  0  0  0
   -0.0578    2.2088   -1.9732 C   0  0  0  0  0  0  0  0  0  0  0  0
   -0.4197    3.6907   -1.8768 C   0  0  0  0  0  0  0  0  0  0  0  0
   -0.2843    4.2095   -0.4347 C   0  0  0  0  0  0  0  0  0  0  0  0
   -0.4294    3.0897    0.6155 C   0  0  0  0  0  0  0  0  0  0  0  0
   -7.0069   -1.5830   -1.9118 H   0  0  0  0  0  0  0  0  0  0  0  0
   -7.7571   -3.1022   -1.3110 H   0  0  0  0  0  0  0  0  0  0  0  0
   -7.6239   -1.6975   -0.2057 H   0  0  0  0  0  0  0  0  0  0  0  0
   -6.0899   -4.6753   -1.2973 H   0  0  0  0  0  0  0  0  0  0  0  0
   -5.8600   -4.5182    0.4821 H   0  0  0  0  0  0  0  0  0  0  0  0
   -3.8598   -5.5232   -0.5902 H   0  0  0  0  0  0  0  0  0  0  0  0
   -3.7265   -4.1251   -1.7200 H   0  0  0  0  0  0  0  0  0  0  0  0
   -2.1358   -3.8417    0.1258 H   0  0  0  0  0  0  0  0  0  0  0  0
   -3.4300   -4.0762    1.3556 H   0  0  0  0  0  0  0  0  0  0  0  0
   -6.0071    0.0413   -0.3877 H   0  0  0  0  0  0  0  0  0  0  0  0
   -4.3344    1.5924    0.4101 H   0  0  0  0  0  0  0  0  0  0  0  0
   -1.6378   -1.6885    1.1621 H   0  0  0  0  0  0  0  0  0  0  0  0
   -2.3898    1.7561    2.0104 H   0  0  0  0  0  0  0  0  0  0  0  0
   -0.2837    1.4230    2.8257 H   0  0  0  0  0  0  0  0  0  0  0  0
   -1.0301   -0.1745    2.8830 H   0  0  0  0  0  0  0  0  0  0  0  0
    0.3056   -0.7976    0.8051 H   0  0  0  0  0  0  0  0  0  0  0  0
    4.4617    1.1404    1.5603 H   0  0  0  0  0  0  0  0  0  0  0  0
    4.6367   -2.3234    0.4275 H   0  0  0  0  0  0  0  0  0  0  0  0
    8.4628   -1.9365   -1.4652 H   0  0  0  0  0  0  0  0  0  0  0  0
    8.4318    0.4823   -1.0899 H   0  0  0  0  0  0  0  0  0  0  0  0
    7.6029    2.7909   -1.3570 H   0  0  0  0  0  0  0  0  0  0  0  0
    8.3988    2.5493    0.2634 H   0  0  0  0  0  0  0  0  0  0  0  0
    7.1440    3.8260    0.0463 H   0  0  0  0  0  0  0  0  0  0  0  0
   -2.2664    2.5927   -0.0763 H   0  0  0  0  0  0  0  0  0  0  0  0
   -0.4572    0.4055   -0.8620 H   0  0  0  0  0  0  0  0  0  0  0  0
   -1.8784    1.0858   -1.6611 H   0  0  0  0  0  0  0  0  0  0  0  0
   -0.1500    1.8683   -3.0272 H   0  0  0  0  0  0  0  0  0  0  0  0
    1.0025    2.0700   -1.6657 H   0  0  0  0  0  0  0  0  0  0  0  0
    0.2391    4.2805   -2.5502 H   0  0  0  0  0  0  0  0  0  0  0  0
   -1.4673    3.8283   -2.2251 H   0  0  0  0  0  0  0  0  0  0  0  0
    0.7078    4.6948   -0.3051 H   0  0  0  0  0  0  0  0  0  0  0  0
   -1.0602    4.9860   -0.2579 H   0  0  0  0  0  0  0  0  0  0  0  0
   -0.7523    3.5489    1.5768 H   0  0  0  0  0  0  0  0  0  0  0  0
    0.5703    2.6370    0.7750 H   0  0  0  0  0  0  0  0  0  0  0  0
  1  2  1  0
  2  3  1  0
  3  4  1  0
  4  5  1  0
  5  6  1  0
  6  7  2  0
  7  8  1  0
  8  9  2  0
  9 10  1  0
 10 11  2  0
 10 12  1  0
 12 13  1  0
 13 14  1  0
 14 15  1  0
 15 16  2  0
 15 17  1  0
 17 18  2  0
 17 19  1  0
 19 20  1  0
 20 21  2  0
 21 22  1  0
 22 23  2  0
 23 24  1  0
 24 25  2  0
 25 26  1  0
 26 27  1  0
 22 28  1  0
 12 29  1  0
 29 30  1  0
 30 31  1  0
 31 32  1  0
 32 33  1  0
 33 34  1  0
  7  2  1  0
 11  6  1  0
 25 20  1  0
 34 29  1  0
  1 35  1  0
  1 36  1  0
  1 37  1  0
  3 38  1  0
  3 39  1  0
  4 40  1  0
  4 41  1  0
  5 42  1  0
  5 43  1  0
  8 44  1  0
  9 45  1  0
 11 46  1  0
 12 47  1  1
 13 48  1  0
 13 49  1  0
 14 50  1  0
 19 51  1  0
 21 52  1  0
 23 53  1  0
 24 54  1  0
 27 55  1  0
 27 56  1  0
 27 57  1  0
 29 58  1  0
 30 59  1  0
 30 60  1  0
 31 61  1  0
 31 62  1  0
 32 63  1  0
 32 64  1  0
 33 65  1  0
 33 66  1  0
 34 67  1  0
 34 68  1  0
M  CHG  1  29   1
M  END
$$$$
