
     RDKit          3D

 68 71  0  0  0  0  0  0  0  0999 V2000
   -5.4829   -2.5459    3.0317 C   0  0  0  0  0  0  0  0  0  0  0  0
   -5.3564   -2.3647    1.5808 N   0  0  0  0  0  0  0  0  0  0  0  0
   -6.3432   -3.0179    0.7072 C   0  0  0  0  0  0  0  0  0  0  0  0
   -6.5057   -2.2517   -0.6044 C   0  0  0  0  0  0  0  0  0  0  0  0
   -5.1569   -2.1211   -1.3087 C   0  0  0  0  0  0  0  0  0  0  0  0
   -4.1213   -1.5167   -0.3970 C   0  0  0  0  0  0  0  0  0  0  0  0
   -4.2191   -1.6679    1.0054 C   0  0  0  0  0  0  0  0  0  0  0  0
   -3.2110   -1.1094    1.8173 C   0  0  0  0  0  0  0  0  0  0  0  0
   -2.1260   -0.4395    1.2498 C   0  0  0  0  0  0  0  0  0  0  0  0
   -2.0167   -0.3068   -0.1419 C   0  0  0  0  0  0  0  0  0  0  0  0
   -3.0173   -0.8582   -0.9584 C   0  0  0  0  0  0  0  0  0  0  0  0
   -0.8261    0.4275   -0.7527 C   0  0  1  0  0  0  0  0  0  0  0  0
   -0.0207   -0.5905   -1.6165 C   0  0  0  0  0  0  0  0  0  0  0  0
    1.4184   -0.3243   -1.5675 N   0  0  0  0  0  0  0  0  0  0  0  0
    2.2066   -0.5719   -0.3922 C   0  0  0  0  0  0  0  0  0  0  0  0
    1.6716   -1.0857    0.6278 O   0  0  0  0  0  0  0  0  0  0  0  0
    3.6401   -0.2250   -0.3654 C   0  0  0  0  0  0  0  0  0  0  0  0
    4.1674    0.3131   -1.3765 O   0  0  0  0  0  0  0  0  0  0  0  0
    4.4387   -0.5243    0.7921 N   0  0  0  0  0  0  0  0  0  0  0  0
    5.7647   -0.0052    1.0006 C   0  0  0  0  0  0  0  0  0  0  0  0
    6.0837    1.3155    0.6349 C   0  0  0  0  0  0  0  0  0  0  0  0
    7.3648    1.8244    0.8625 C   0  0  0  0  0  0  0  0  0  0  0  0
    8.3354    1.0251    1.4682 C   0  0  0  0  0  0  0  0  0  0  0  0
    8.0273   -0.2810    1.8538 C   0  0  0  0  0  0  0  0  0  0  0  0
    6.7394   -0.8068    1.6283 C   0  0  0  0  0  0  0  0  0  0  0  0
    6.3982   -2.1168    2.0030 O   0  0  0  0  0  0  0  0  0  0  0  0
    7.2840   -3.0314    2.6405 C   0  0  0  0  0  0  0  0  0  0  0  0
    7.7498    3.4722    0.3996 Cl  0  0  0  0  0  0  0  0  0  0  0  0
   -1.2644    1.6392   -1.5202 N   0  0  0  0  0  0  0  0  0  0  0  0
   -0.1027    2.3568   -2.1093 C   0  0  0  0  0  0  0  0  0  0  0  0
   -0.5341    3.6026   -2.8972 C   0  0  0  0  0  0  0  0  0  0  0  0
   -1.3403    4.5503   -2.0151 C   0  0  0  0  0  0  0  0  0  0  0  0
   -2.5164    3.8063   -1.3915 C   0  0  0  0  0  0  0  0  0  0  0  0
   -2.0253    2.5649   -0.6359 C   0  0  0  0  0  0  0  0  0  0  0  0
   -5.5753   -1.5566    3.5272 H   0  0  0  0  0  0  0  0  0  0  0  0
   -4.5942   -3.0835    3.4245 H   0  0  0  0  0  0  0  0  0  0  0  0
   -6.3807   -3.1464    3.2911 H   0  0  0  0  0  0  0  0  0  0  0  0
   -6.0118   -4.0578    0.4958 H   0  0  0  0  0  0  0  0  0  0  0  0
   -7.3358   -3.0645    1.2059 H   0  0  0  0  0  0  0  0  0  0  0  0
   -7.2186   -2.7908   -1.2648 H   0  0  0  0  0  0  0  0  0  0  0  0
   -6.9194   -1.2403   -0.3958 H   0  0  0  0  0  0  0  0  0  0  0  0
   -5.2898   -1.4879   -2.2130 H   0  0  0  0  0  0  0  0  0  0  0  0
   -4.8072   -3.1241   -1.6366 H   0  0  0  0  0  0  0  0  0  0  0  0
   -3.2508   -1.1843    2.8947 H   0  0  0  0  0  0  0  0  0  0  0  0
   -1.3691   -0.0223    1.9023 H   0  0  0  0  0  0  0  0  0  0  0  0
   -2.9371   -0.7773   -2.0356 H   0  0  0  0  0  0  0  0  0  0  0  0
   -0.1662    0.7637    0.0798 H   0  0  0  0  0  0  0  0  0  0  0  0
   -0.1868   -1.6338   -1.2656 H   0  0  0  0  0  0  0  0  0  0  0  0
   -0.3724   -0.5577   -2.6705 H   0  0  0  0  0  0  0  0  0  0  0  0
    1.8987   -0.0403   -2.4506 H   0  0  0  0  0  0  0  0  0  0  0  0
    4.0662   -1.2136    1.4834 H   0  0  0  0  0  0  0  0  0  0  0  0
    5.3327    1.9590    0.1955 H   0  0  0  0  0  0  0  0  0  0  0  0
    9.3285    1.4172    1.6476 H   0  0  0  0  0  0  0  0  0  0  0  0
    8.7981   -0.8739    2.3267 H   0  0  0  0  0  0  0  0  0  0  0  0
    7.6189   -2.6212    3.6166 H   0  0  0  0  0  0  0  0  0  0  0  0
    8.1599   -3.2322    1.9882 H   0  0  0  0  0  0  0  0  0  0  0  0
    6.7498   -3.9865    2.8213 H   0  0  0  0  0  0  0  0  0  0  0  0
   -1.8915    1.3366   -2.3034 H   0  0  0  0  0  0  0  0  0  0  0  0
    0.4249    1.7109   -2.8388 H   0  0  0  0  0  0  0  0  0  0  0  0
    0.6218    2.6498   -1.3154 H   0  0  0  0  0  0  0  0  0  0  0  0
    0.3672    4.1310   -3.2763 H   0  0  0  0  0  0  0  0  0  0  0  0
   -1.1469    3.2957   -3.7734 H   0  0  0  0  0  0  0  0  0  0  0  0
   -1.7183    5.3972   -2.6272 H   0  0  0  0  0  0  0  0  0  0  0  0
   -0.6888    4.9642   -1.2140 H   0  0  0  0  0  0  0  0  0  0  0  0
   -3.0478    4.4825   -0.6876 H   0  0  0  0  0  0  0  0  0  0  0  0
   -3.2333    3.5017   -2.1856 H   0  0  0  0  0  0  0  0  0  0  0  0
   -1.3978    2.8836    0.2278 H   0  0  0  0  0  0  0  0  0  0  0  0
   -2.9310    2.0671   -0.2276 H   0  0  0  0  0  0  0  0  0  0  0  0
  1  2  1  0
  2  3  1  0
  3  4  1  0
  4  5  1  0
  5  6  1  0
  6  7  2  0
  7  8  1  0
  8  9  2  0
  9 10  1  0
 10 11  2  0
 10 12  1  0
 12 13  1  0
 13 14  1  0
 14 15  1  0
 15 16  2  0
 15 17  1  0
 17 18  2  0
 17 19  1  0
 19 20  1  0
 20 21  2  0
 21 22  1  0
 22 23  2  0
 23 24  1  0
 24 25  2  0
 25 26  1  0
 26 27  1  0
 22 28  1  0
 12 29  1  0
 29 30  1  0
 30 31  1  0
 31 32  1  0
 32 33  1  0
 33 34  1  0
  7  2  1  0
 11  6  1  0
 25 20  1  0
 34 29  1  0
  1 35  1  0
  1 36  1  0
  1 37  1  0
  3 38  1  0
  3 39  1  0
  4 40  1  0
  4 41  1  0
  5 42  1  0
  5 43  1  0
  8 44  1  0
  9 45  1  0
 11 46  1  0
 12 47  1  1
 13 48  1  0
 13 49  1  0
 14 50  1  0
 19 51  1  0
 21 52  1  0
 23 53  1  0
 24 54  1  0
 27 55  1  0
 27 56  1  0
 27 57  1  0
 29 58  1  0
 30 59  1  0
 30 60  1  0
 31 61  1  0
 31 62  1  0
 32 63  1  0
 32 64  1  0
 33 65  1  0
 33 66  1  0
 34 67  1  0
 34 68  1  0
M  CHG  1  29   1
M  END
$$$$
