
     RDKit          3D

 68 71  0  0  0  0  0  0  0  0999 V2000
   -7.0520   -2.1245   -0.6728 C   0  0  0  0  0  0  0  0  0  0  0  0
   -6.1513   -1.6928    0.4024 N   0  0  0  0  0  0  0  0  0  0  0  0
   -6.6773   -1.6442    1.7752 C   0  0  0  0  0  0  0  0  0  0  0  0
   -5.9220   -0.6159    2.6154 C   0  0  0  0  0  0  0  0  0  0  0  0
   -4.4275   -0.9302    2.6141 C   0  0  0  0  0  0  0  0  0  0  0  0
   -3.8959   -1.0483    1.2096 C   0  0  0  0  0  0  0  0  0  0  0  0
   -4.7424   -1.4449    0.1501 C   0  0  0  0  0  0  0  0  0  0  0  0
   -4.1952   -1.5617   -1.1427 C   0  0  0  0  0  0  0  0  0  0  0  0
   -2.8403   -1.3164   -1.3710 C   0  0  0  0  0  0  0  0  0  0  0  0
   -1.9878   -0.9485   -0.3154 C   0  0  0  0  0  0  0  0  0  0  0  0
   -2.5316   -0.8233    0.9738 C   0  0  0  0  0  0  0  0  0  0  0  0
   -0.4991   -0.6693   -0.5337 C   0  0  1  0  0  0  0  0  0  0  0  0
    0.1717   -1.7566   -1.4182 C   0  0  0  0  0  0  0  0  0  0  0  0
    1.6194   -1.5614   -1.4940 N   0  0  0  0  0  0  0  0  0  0  0  0
    2.4899   -1.7852   -0.3747 C   0  0  0  0  0  0  0  0  0  0  0  0
    2.0676   -2.4066    0.6380 O   0  0  0  0  0  0  0  0  0  0  0  0
    3.8708   -1.2718   -0.3905 C   0  0  0  0  0  0  0  0  0  0  0  0
    4.2921   -0.6476   -1.4022 O   0  0  0  0  0  0  0  0  0  0  0  0
    4.7364   -1.4797    0.7362 N   0  0  0  0  0  0  0  0  0  0  0  0
    5.9479   -0.7347    0.9381 C   0  0  0  0  0  0  0  0  0  0  0  0
    7.1128   -1.4197    1.3134 C   0  0  0  0  0  0  0  0  0  0  0  0
    8.3076   -0.7258    1.5207 C   0  0  0  0  0  0  0  0  0  0  0  0
    8.3435    0.6615    1.3682 C   0  0  0  0  0  0  0  0  0  0  0  0
    7.1841    1.3597    1.0230 C   0  0  0  0  0  0  0  0  0  0  0  0
    5.9708    0.6723    0.8189 C   0  0  0  0  0  0  0  0  0  0  0  0
    4.7770    1.3517    0.5253 O   0  0  0  0  0  0  0  0  0  0  0  0
    4.6637    2.7626    0.3732 C   0  0  0  0  0  0  0  0  0  0  0  0
    9.7623   -1.5971    1.9702 Cl  0  0  0  0  0  0  0  0  0  0  0  0
   -0.2138    0.7249   -0.9998 N   0  0  0  0  0  0  0  0  0  0  0  0
   -0.5517    1.7178    0.0498 C   0  0  0  0  0  0  0  0  0  0  0  0
   -0.0990    3.1286   -0.3549 C   0  0  0  0  0  0  0  0  0  0  0  0
   -0.7196    3.5292   -1.6950 C   0  0  0  0  0  0  0  0  0  0  0  0
   -0.4345    2.4690   -2.7613 C   0  0  0  0  0  0  0  0  0  0  0  0
   -0.8816    1.0818   -2.2763 C   0  0  0  0  0  0  0  0  0  0  0  0
   -7.1234   -1.3298   -1.4449 H   0  0  0  0  0  0  0  0  0  0  0  0
   -8.0754   -2.3268   -0.2910 H   0  0  0  0  0  0  0  0  0  0  0  0
   -6.6726   -3.0625   -1.1303 H   0  0  0  0  0  0  0  0  0  0  0  0
   -7.7534   -1.3641    1.7708 H   0  0  0  0  0  0  0  0  0  0  0  0
   -6.5823   -2.6503    2.2385 H   0  0  0  0  0  0  0  0  0  0  0  0
   -6.0917    0.4017    2.1993 H   0  0  0  0  0  0  0  0  0  0  0  0
   -6.3043   -0.6344    3.6588 H   0  0  0  0  0  0  0  0  0  0  0  0
   -4.2457   -1.8869    3.1501 H   0  0  0  0  0  0  0  0  0  0  0  0
   -3.8955   -0.1206    3.1601 H   0  0  0  0  0  0  0  0  0  0  0  0
   -4.8074   -1.8398   -1.9889 H   0  0  0  0  0  0  0  0  0  0  0  0
   -2.4677   -1.4071   -2.3815 H   0  0  0  0  0  0  0  0  0  0  0  0
   -1.8914   -0.5404    1.8012 H   0  0  0  0  0  0  0  0  0  0  0  0
   -0.0072   -0.7966    0.4577 H   0  0  0  0  0  0  0  0  0  0  0  0
   -0.2395   -1.7516   -2.4467 H   0  0  0  0  0  0  0  0  0  0  0  0
   -0.0389   -2.7644   -0.9976 H   0  0  0  0  0  0  0  0  0  0  0  0
    2.0211   -1.2222   -2.3971 H   0  0  0  0  0  0  0  0  0  0  0  0
    4.5412   -2.2841    1.3741 H   0  0  0  0  0  0  0  0  0  0  0  0
    7.0917   -2.4964    1.4287 H   0  0  0  0  0  0  0  0  0  0  0  0
    9.2679    1.2022    1.5268 H   0  0  0  0  0  0  0  0  0  0  0  0
    7.2391    2.4356    0.9297 H   0  0  0  0  0  0  0  0  0  0  0  0
    4.9513    3.2729    1.3165 H   0  0  0  0  0  0  0  0  0  0  0  0
    3.6099    3.0174    0.1386 H   0  0  0  0  0  0  0  0  0  0  0  0
    5.3075    3.1093   -0.4625 H   0  0  0  0  0  0  0  0  0  0  0  0
    0.8207    0.7950   -1.1523 H   0  0  0  0  0  0  0  0  0  0  0  0
   -0.0448    1.4580    1.0060 H   0  0  0  0  0  0  0  0  0  0  0  0
   -1.6485    1.7350    0.2386 H   0  0  0  0  0  0  0  0  0  0  0  0
   -0.4078    3.8556    0.4268 H   0  0  0  0  0  0  0  0  0  0  0  0
    1.0100    3.1573   -0.4329 H   0  0  0  0  0  0  0  0  0  0  0  0
   -1.8188    3.6501   -1.5747 H   0  0  0  0  0  0  0  0  0  0  0  0
   -0.2997    4.5050   -2.0209 H   0  0  0  0  0  0  0  0  0  0  0  0
   -0.9795    2.7291   -3.6942 H   0  0  0  0  0  0  0  0  0  0  0  0
    0.6536    2.4522   -2.9912 H   0  0  0  0  0  0  0  0  0  0  0  0
   -1.9869    1.0955   -2.1561 H   0  0  0  0  0  0  0  0  0  0  0  0
   -0.6265    0.3531   -3.0727 H   0  0  0  0  0  0  0  0  0  0  0  0
  1  2  1  0
  2  3  1  0
  3  4  1  0
  4  5  1  0
  5  6  1  0
  6  7  2  0
  7  8  1  0
  8  9  2  0
  9 10  1  0
 10 11  2  0
 10 12  1  0
 12 13  1  0
 13 14  1  0
 14 15  1  0
 15 16  2  0
 15 17  1  0
 17 18  2  0
 17 19  1  0
 19 20  1  0
 20 21  2  0
 21 22  1  0
 22 23  2  0
 23 24  1  0
 24 25  2  0
 25 26  1  0
 26 27  1  0
 22 28  1  0
 12 29  1  0
 29 30  1  0
 30 31  1  0
 31 32  1  0
 32 33  1  0
 33 34  1  0
  7  2  1  0
 11  6  1  0
 25 20  1  0
 34 29  1  0
  1 35  1  0
  1 36  1  0
  1 37  1  0
  3 38  1  0
  3 39  1  0
  4 40  1  0
  4 41  1  0
  5 42  1  0
  5 43  1  0
  8 44  1  0
  9 45  1  0
 11 46  1  0
 12 47  1  1
 13 48  1  0
 13 49  1  0
 14 50  1  0
 19 51  1  0
 21 52  1  0
 23 53  1  0
 24 54  1  0
 27 55  1  0
 27 56  1  0
 27 57  1  0
 29 58  1  0
 30 59  1  0
 30 60  1  0
 31 61  1  0
 31 62  1  0
 32 63  1  0
 32 64  1  0
 33 65  1  0
 33 66  1  0
 34 67  1  0
 34 68  1  0
M  CHG  1  29   1
M  END
$$$$
