
     RDKit          3D

 68 71  0  0  0  0  0  0  0  0999 V2000
    0.0498   -3.6446    1.9528 C   0  0  0  0  0  0  0  0  0  0  0  0
   -0.0773   -2.9374    0.6740 N   0  0  0  0  0  0  0  0  0  0  0  0
   -0.1337   -3.7517   -0.5508 C   0  0  0  0  0  0  0  0  0  0  0  0
    0.0592   -2.9055   -1.8099 C   0  0  0  0  0  0  0  0  0  0  0  0
   -0.9172   -1.7320   -1.8179 C   0  0  0  0  0  0  0  0  0  0  0  0
   -0.7618   -0.9059   -0.5709 C   0  0  0  0  0  0  0  0  0  0  0  0
   -0.3582   -1.5132    0.6378 C   0  0  0  0  0  0  0  0  0  0  0  0
   -0.2100   -0.7066    1.7832 C   0  0  0  0  0  0  0  0  0  0  0  0
   -0.4699    0.6640    1.7298 C   0  0  0  0  0  0  0  0  0  0  0  0
   -0.9001    1.2645    0.5373 C   0  0  0  0  0  0  0  0  0  0  0  0
   -1.0636    0.4637   -0.6055 C   0  0  0  0  0  0  0  0  0  0  0  0
   -1.1362    2.7747    0.4806 C   0  0  1  0  0  0  0  0  0  0  0  0
   -0.0928    3.4269   -0.4748 C   0  0  0  0  0  0  0  0  0  0  0  0
    1.2577    2.9238   -0.2099 N   0  0  0  0  0  0  0  0  0  0  0  0
    1.8227    1.8396   -0.9619 C   0  0  0  0  0  0  0  0  0  0  0  0
    1.4418    1.6264   -2.1448 O   0  0  0  0  0  0  0  0  0  0  0  0
    2.7899    0.9255   -0.3342 C   0  0  0  0  0  0  0  0  0  0  0  0
    3.4603    1.3159    0.6592 O   0  0  0  0  0  0  0  0  0  0  0  0
    2.9612   -0.4042   -0.8514 N   0  0  0  0  0  0  0  0  0  0  0  0
    3.4232   -1.5301   -0.0771 C   0  0  0  0  0  0  0  0  0  0  0  0
    3.3013   -1.5499    1.3268 C   0  0  0  0  0  0  0  0  0  0  0  0
    3.7333   -2.6556    2.0627 C   0  0  0  0  0  0  0  0  0  0  0  0
    4.2602   -3.7677    1.4068 C   0  0  0  0  0  0  0  0  0  0  0  0
    4.3584   -3.7781    0.0151 C   0  0  0  0  0  0  0  0  0  0  0  0
    3.9409   -2.6636   -0.7391 C   0  0  0  0  0  0  0  0  0  0  0  0
    4.0275   -2.6479   -2.1410 O   0  0  0  0  0  0  0  0  0  0  0  0
    4.4837   -3.7377   -2.9354 C   0  0  0  0  0  0  0  0  0  0  0  0
    3.5939   -2.6542    3.8117 Cl  0  0  0  0  0  0  0  0  0  0  0  0
   -2.5526    3.0934    0.1040 N   0  0  0  0  0  0  0  0  0  0  0  0
   -3.4964    2.4734    1.0749 C   0  0  0  0  0  0  0  0  0  0  0  0
   -4.9602    2.7475    0.7077 C   0  0  0  0  0  0  0  0  0  0  0  0
   -5.2191    4.2485    0.6359 C   0  0  0  0  0  0  0  0  0  0  0  0
   -4.2364    4.8999   -0.3316 C   0  0  0  0  0  0  0  0  0  0  0  0
   -2.7872    4.5618    0.0499 C   0  0  0  0  0  0  0  0  0  0  0  0
    0.1145   -4.7438    1.8028 H   0  0  0  0  0  0  0  0  0  0  0  0
    0.9698   -3.3171    2.4757 H   0  0  0  0  0  0  0  0  0  0  0  0
   -0.8362   -3.4375    2.5895 H   0  0  0  0  0  0  0  0  0  0  0  0
   -1.1167   -4.2687   -0.5992 H   0  0  0  0  0  0  0  0  0  0  0  0
    0.6658   -4.5244   -0.5258 H   0  0  0  0  0  0  0  0  0  0  0  0
    1.1023   -2.5255   -1.8465 H   0  0  0  0  0  0  0  0  0  0  0  0
   -0.1095   -3.5356   -2.7095 H   0  0  0  0  0  0  0  0  0  0  0  0
   -1.9611   -2.1090   -1.8770 H   0  0  0  0  0  0  0  0  0  0  0  0
   -0.7179   -1.1127   -2.7197 H   0  0  0  0  0  0  0  0  0  0  0  0
    0.1235   -1.1241    2.7228 H   0  0  0  0  0  0  0  0  0  0  0  0
   -0.3285    1.2586    2.6235 H   0  0  0  0  0  0  0  0  0  0  0  0
   -1.3858    0.9132   -1.5363 H   0  0  0  0  0  0  0  0  0  0  0  0
   -0.9366    3.2024    1.4909 H   0  0  0  0  0  0  0  0  0  0  0  0
   -0.3776    3.2511   -1.5345 H   0  0  0  0  0  0  0  0  0  0  0  0
   -0.0668    4.5243   -0.3127 H   0  0  0  0  0  0  0  0  0  0  0  0
    1.6974    3.1900    0.7000 H   0  0  0  0  0  0  0  0  0  0  0  0
    2.6915   -0.5699   -1.8468 H   0  0  0  0  0  0  0  0  0  0  0  0
    2.8466   -0.7255    1.8572 H   0  0  0  0  0  0  0  0  0  0  0  0
    4.5875   -4.6295    1.9744 H   0  0  0  0  0  0  0  0  0  0  0  0
    4.7630   -4.6582   -0.4653 H   0  0  0  0  0  0  0  0  0  0  0  0
    4.4290   -3.4530   -4.0060 H   0  0  0  0  0  0  0  0  0  0  0  0
    3.8381   -4.6262   -2.7705 H   0  0  0  0  0  0  0  0  0  0  0  0
    5.5386   -3.9777   -2.6851 H   0  0  0  0  0  0  0  0  0  0  0  0
   -2.7462    2.6999   -0.8475 H   0  0  0  0  0  0  0  0  0  0  0  0
   -3.2984    2.8485    2.1052 H   0  0  0  0  0  0  0  0  0  0  0  0
   -3.3787    1.3686    1.0917 H   0  0  0  0  0  0  0  0  0  0  0  0
   -5.6256    2.2959    1.4749 H   0  0  0  0  0  0  0  0  0  0  0  0
   -5.1945    2.2773   -0.2727 H   0  0  0  0  0  0  0  0  0  0  0  0
   -6.2589    4.4305    0.2887 H   0  0  0  0  0  0  0  0  0  0  0  0
   -5.1065    4.6992    1.6468 H   0  0  0  0  0  0  0  0  0  0  0  0
   -4.4414    4.5465   -1.3662 H   0  0  0  0  0  0  0  0  0  0  0  0
   -4.3769    6.0022   -0.3110 H   0  0  0  0  0  0  0  0  0  0  0  0
   -2.5391    5.0349    1.0273 H   0  0  0  0  0  0  0  0  0  0  0  0
   -2.1573    5.0317   -0.7334 H   0  0  0  0  0  0  0  0  0  0  0  0
  1  2  1  0
  2  3  1  0
  3  4  1  0
  4  5  1  0
  5  6  1  0
  6  7  2  0
  7  8  1  0
  8  9  2  0
  9 10  1  0
 10 11  2  0
 10 12  1  0
 12 13  1  0
 13 14  1  0
 14 15  1  0
 15 16  2  0
 15 17  1  0
 17 18  2  0
 17 19  1  0
 19 20  1  0
 20 21  2  0
 21 22  1  0
 22 23  2  0
 23 24  1  0
 24 25  2  0
 25 26  1  0
 26 27  1  0
 22 28  1  0
 12 29  1  0
 29 30  1  0
 30 31  1  0
 31 32  1  0
 32 33  1  0
 33 34  1  0
  7  2  1  0
 11  6  1  0
 25 20  1  0
 34 29  1  0
  1 35  1  0
  1 36  1  0
  1 37  1  0
  3 38  1  0
  3 39  1  0
  4 40  1  0
  4 41  1  0
  5 42  1  0
  5 43  1  0
  8 44  1  0
  9 45  1  0
 11 46  1  0
 12 47  1  1
 13 48  1  0
 13 49  1  0
 14 50  1  0
 19 51  1  0
 21 52  1  0
 23 53  1  0
 24 54  1  0
 27 55  1  0
 27 56  1  0
 27 57  1  0
 29 58  1  0
 30 59  1  0
 30 60  1  0
 31 61  1  0
 31 62  1  0
 32 63  1  0
 32 64  1  0
 33 65  1  0
 33 66  1  0
 34 67  1  0
 34 68  1  0
M  CHG  1  29   1
M  END
$$$$
