
     RDKit          3D

 68 71  0  0  0  0  0  0  0  0999 V2000
   -7.4904   -0.8272    2.1879 C   0  0  0  0  0  0  0  0  0  0  0  0
   -6.5559   -1.5239    1.2961 N   0  0  0  0  0  0  0  0  0  0  0  0
   -7.0014   -2.7716    0.6572 C   0  0  0  0  0  0  0  0  0  0  0  0
   -6.2595   -3.0100   -0.6567 C   0  0  0  0  0  0  0  0  0  0  0  0
   -4.7519   -3.0285   -0.4143 C   0  0  0  0  0  0  0  0  0  0  0  0
   -4.2981   -1.7821    0.3002 C   0  0  0  0  0  0  0  0  0  0  0  0
   -5.1821   -1.0760    1.1471 C   0  0  0  0  0  0  0  0  0  0  0  0
   -4.7088    0.0754    1.8064 C   0  0  0  0  0  0  0  0  0  0  0  0
   -3.3866    0.4941    1.6515 C   0  0  0  0  0  0  0  0  0  0  0  0
   -2.4915   -0.2282    0.8475 C   0  0  0  0  0  0  0  0  0  0  0  0
   -2.9652   -1.3641    0.1662 C   0  0  0  0  0  0  0  0  0  0  0  0
   -1.0627    0.2891    0.6750 C   0  0  1  0  0  0  0  0  0  0  0  0
   -0.0320   -0.8812    0.6607 C   0  0  0  0  0  0  0  0  0  0  0  0
    1.3285   -0.4037    0.9070 N   0  0  0  0  0  0  0  0  0  0  0  0
    2.4157   -0.6183   -0.0078 C   0  0  0  0  0  0  0  0  0  0  0  0
    2.2697   -1.3876   -0.9960 O   0  0  0  0  0  0  0  0  0  0  0  0
    3.7109    0.0552    0.2018 C   0  0  0  0  0  0  0  0  0  0  0  0
    3.8606    0.8208    1.1928 O   0  0  0  0  0  0  0  0  0  0  0  0
    4.7849   -0.1268   -0.7354 N   0  0  0  0  0  0  0  0  0  0  0  0
    6.1116    0.3762   -0.5124 C   0  0  0  0  0  0  0  0  0  0  0  0
    6.7466    1.0944   -1.5363 C   0  0  0  0  0  0  0  0  0  0  0  0
    8.0374    1.5971   -1.3547 C   0  0  0  0  0  0  0  0  0  0  0  0
    8.7095    1.3730   -0.1517 C   0  0  0  0  0  0  0  0  0  0  0  0
    8.1000    0.6353    0.8657 C   0  0  0  0  0  0  0  0  0  0  0  0
    6.8011    0.1165    0.6917 C   0  0  0  0  0  0  0  0  0  0  0  0
    6.1835   -0.6740    1.6746 O   0  0  0  0  0  0  0  0  0  0  0  0
    6.7669   -1.0056    2.9303 C   0  0  0  0  0  0  0  0  0  0  0  0
    8.8122    2.5110   -2.6360 Cl  0  0  0  0  0  0  0  0  0  0  0  0
   -0.9794    1.2400   -0.4841 N   0  0  0  0  0  0  0  0  0  0  0  0
   -0.7762    0.5828   -1.7968 C   0  0  0  0  0  0  0  0  0  0  0  0
   -1.0244    1.5650   -2.9607 C   0  0  0  0  0  0  0  0  0  0  0  0
   -0.6737    3.0172   -2.5951 C   0  0  0  0  0  0  0  0  0  0  0  0
    0.4298    3.0711   -1.5387 C   0  0  0  0  0  0  0  0  0  0  0  0
    0.0223    2.3187   -0.2515 C   0  0  0  0  0  0  0  0  0  0  0  0
   -7.6592    0.2071    1.8212 H   0  0  0  0  0  0  0  0  0  0  0  0
   -7.0798   -0.8000    3.2193 H   0  0  0  0  0  0  0  0  0  0  0  0
   -8.4737   -1.3423    2.2309 H   0  0  0  0  0  0  0  0  0  0  0  0
   -8.0905   -2.7292    0.4368 H   0  0  0  0  0  0  0  0  0  0  0  0
   -6.8202   -3.6217    1.3504 H   0  0  0  0  0  0  0  0  0  0  0  0
   -6.5774   -3.9815   -1.0929 H   0  0  0  0  0  0  0  0  0  0  0  0
   -6.5134   -2.2031   -1.3792 H   0  0  0  0  0  0  0  0  0  0  0  0
   -4.2373   -3.1185   -1.3959 H   0  0  0  0  0  0  0  0  0  0  0  0
   -4.4824   -3.9146    0.2004 H   0  0  0  0  0  0  0  0  0  0  0  0
   -5.3541    0.6646    2.4424 H   0  0  0  0  0  0  0  0  0  0  0  0
   -3.0600    1.3911    2.1635 H   0  0  0  0  0  0  0  0  0  0  0  0
   -2.3052   -1.9340   -0.4727 H   0  0  0  0  0  0  0  0  0  0  0  0
   -0.8380    0.8536    1.6108 H   0  0  0  0  0  0  0  0  0  0  0  0
   -0.2885   -1.5895    1.4784 H   0  0  0  0  0  0  0  0  0  0  0  0
   -0.0849   -1.4669   -0.2783 H   0  0  0  0  0  0  0  0  0  0  0  0
    1.5081    0.1089    1.7998 H   0  0  0  0  0  0  0  0  0  0  0  0
    4.5583   -0.4961   -1.6864 H   0  0  0  0  0  0  0  0  0  0  0  0
    6.2278    1.2753   -2.4697 H   0  0  0  0  0  0  0  0  0  0  0  0
    9.7094    1.7621   -0.0069 H   0  0  0  0  0  0  0  0  0  0  0  0
    8.6526    0.4638    1.7791 H   0  0  0  0  0  0  0  0  0  0  0  0
    7.7041   -1.5810    2.7760 H   0  0  0  0  0  0  0  0  0  0  0  0
    6.9749   -0.0818    3.5103 H   0  0  0  0  0  0  0  0  0  0  0  0
    6.0556   -1.6331    3.5053 H   0  0  0  0  0  0  0  0  0  0  0  0
   -1.9067    1.7292   -0.5375 H   0  0  0  0  0  0  0  0  0  0  0  0
    0.2660    0.2044   -1.8776 H   0  0  0  0  0  0  0  0  0  0  0  0
   -1.4649   -0.2783   -1.9217 H   0  0  0  0  0  0  0  0  0  0  0  0
   -0.4181    1.2447   -3.8361 H   0  0  0  0  0  0  0  0  0  0  0  0
   -2.0939    1.5211   -3.2621 H   0  0  0  0  0  0  0  0  0  0  0  0
   -0.3467    3.5634   -3.5062 H   0  0  0  0  0  0  0  0  0  0  0  0
   -1.5772    3.5323   -2.2004 H   0  0  0  0  0  0  0  0  0  0  0  0
    0.6638    4.1303   -1.2963 H   0  0  0  0  0  0  0  0  0  0  0  0
    1.3519    2.6119   -1.9597 H   0  0  0  0  0  0  0  0  0  0  0  0
   -0.3995    3.0566    0.4685 H   0  0  0  0  0  0  0  0  0  0  0  0
    0.9480    1.9273    0.2114 H   0  0  0  0  0  0  0  0  0  0  0  0
  1  2  1  0
  2  3  1  0
  3  4  1  0
  4  5  1  0
  5  6  1  0
  6  7  2  0
  7  8  1  0
  8  9  2  0
  9 10  1  0
 10 11  2  0
 10 12  1  0
 12 13  1  0
 13 14  1  0
 14 15  1  0
 15 16  2  0
 15 17  1  0
 17 18  2  0
 17 19  1  0
 19 20  1  0
 20 21  2  0
 21 22  1  0
 22 23  2  0
 23 24  1  0
 24 25  2  0
 25 26  1  0
 26 27  1  0
 22 28  1  0
 12 29  1  0
 29 30  1  0
 30 31  1  0
 31 32  1  0
 32 33  1  0
 33 34  1  0
  7  2  1  0
 11  6  1  0
 25 20  1  0
 34 29  1  0
  1 35  1  0
  1 36  1  0
  1 37  1  0
  3 38  1  0
  3 39  1  0
  4 40  1  0
  4 41  1  0
  5 42  1  0
  5 43  1  0
  8 44  1  0
  9 45  1  0
 11 46  1  0
 12 47  1  1
 13 48  1  0
 13 49  1  0
 14 50  1  0
 19 51  1  0
 21 52  1  0
 23 53  1  0
 24 54  1  0
 27 55  1  0
 27 56  1  0
 27 57  1  0
 29 58  1  0
 30 59  1  0
 30 60  1  0
 31 61  1  0
 31 62  1  0
 32 63  1  0
 32 64  1  0
 33 65  1  0
 33 66  1  0
 34 67  1  0
 34 68  1  0
M  CHG  1  29   1
M  END
$$$$
