
     RDKit          3D

 68 71  0  0  0  0  0  0  0  0999 V2000
   -6.8871    2.6888    0.6991 C   0  0  0  0  0  0  0  0  0  0  0  0
   -5.7779    2.5662   -0.2541 N   0  0  0  0  0  0  0  0  0  0  0  0
   -5.8217    3.3718   -1.4840 C   0  0  0  0  0  0  0  0  0  0  0  0
   -5.0485    2.6909   -2.6119 C   0  0  0  0  0  0  0  0  0  0  0  0
   -3.6059    2.4343   -2.1812 C   0  0  0  0  0  0  0  0  0  0  0  0
   -3.5505    1.6720   -0.8830 C   0  0  0  0  0  0  0  0  0  0  0  0
   -4.6039    1.7687    0.0552 C   0  0  0  0  0  0  0  0  0  0  0  0
   -4.4942    1.0615    1.2695 C   0  0  0  0  0  0  0  0  0  0  0  0
   -3.3615    0.2961    1.5506 C   0  0  0  0  0  0  0  0  0  0  0  0
   -2.3082    0.2105    0.6267 C   0  0  0  0  0  0  0  0  0  0  0  0
   -2.4077    0.9157   -0.5828 C   0  0  0  0  0  0  0  0  0  0  0  0
   -1.0591   -0.6139    0.9324 C   0  0  1  0  0  0  0  0  0  0  0  0
   -0.3450    0.0443    2.1523 C   0  0  0  0  0  0  0  0  0  0  0  0
    1.1021   -0.1709    2.1209 N   0  0  0  0  0  0  0  0  0  0  0  0
    1.9573    0.4826    1.1696 C   0  0  0  0  0  0  0  0  0  0  0  0
    1.4772    1.3345    0.3733 O   0  0  0  0  0  0  0  0  0  0  0  0
    3.3978    0.1687    1.1187 C   0  0  0  0  0  0  0  0  0  0  0  0
    3.8751   -0.6844    1.9151 O   0  0  0  0  0  0  0  0  0  0  0  0
    4.2449    0.7985    0.1424 N   0  0  0  0  0  0  0  0  0  0  0  0
    5.6815    0.7151    0.1623 C   0  0  0  0  0  0  0  0  0  0  0  0
    6.3863    0.7717    1.3786 C   0  0  0  0  0  0  0  0  0  0  0  0
    7.7824    0.7159    1.3922 C   0  0  0  0  0  0  0  0  0  0  0  0
    8.4881    0.6157    0.1923 C   0  0  0  0  0  0  0  0  0  0  0  0
    7.8024    0.5777   -1.0233 C   0  0  0  0  0  0  0  0  0  0  0  0
    6.3944    0.6315   -1.0506 C   0  0  0  0  0  0  0  0  0  0  0  0
    5.6750    0.5935   -2.2562 O   0  0  0  0  0  0  0  0  0  0  0  0
    6.2673    0.5066   -3.5481 C   0  0  0  0  0  0  0  0  0  0  0  0
    8.6489    0.7851    2.9160 Cl  0  0  0  0  0  0  0  0  0  0  0  0
   -1.3900   -2.0601    1.1549 N   0  0  0  0  0  0  0  0  0  0  0  0
   -2.0824   -2.6667   -0.0294 C   0  0  0  0  0  0  0  0  0  0  0  0
   -1.1350   -3.4634   -0.9380 C   0  0  0  0  0  0  0  0  0  0  0  0
   -0.5059   -4.6402   -0.1754 C   0  0  0  0  0  0  0  0  0  0  0  0
   -0.3510   -4.3459    1.3252 C   0  0  0  0  0  0  0  0  0  0  0  0
   -0.1864   -2.8405    1.5697 C   0  0  0  0  0  0  0  0  0  0  0  0
   -6.5154    3.1013    1.6607 H   0  0  0  0  0  0  0  0  0  0  0  0
   -7.6755    3.3744    0.3219 H   0  0  0  0  0  0  0  0  0  0  0  0
   -7.3487    1.6933    0.8684 H   0  0  0  0  0  0  0  0  0  0  0  0
   -5.3841    4.3732   -1.2802 H   0  0  0  0  0  0  0  0  0  0  0  0
   -6.8717    3.5140   -1.8209 H   0  0  0  0  0  0  0  0  0  0  0  0
   -5.0567    3.3401   -3.5139 H   0  0  0  0  0  0  0  0  0  0  0  0
   -5.5398    1.7270   -2.8709 H   0  0  0  0  0  0  0  0  0  0  0  0
   -3.0932    1.8624   -2.9852 H   0  0  0  0  0  0  0  0  0  0  0  0
   -3.0757    3.4028   -2.0532 H   0  0  0  0  0  0  0  0  0  0  0  0
   -5.2779    1.0954    2.0129 H   0  0  0  0  0  0  0  0  0  0  0  0
   -3.3043   -0.2214    2.4994 H   0  0  0  0  0  0  0  0  0  0  0  0
   -1.5961    0.8721   -1.2995 H   0  0  0  0  0  0  0  0  0  0  0  0
   -0.3754   -0.5476    0.0560 H   0  0  0  0  0  0  0  0  0  0  0  0
   -0.7615   -0.3642    3.0986 H   0  0  0  0  0  0  0  0  0  0  0  0
   -0.5283    1.1421    2.1752 H   0  0  0  0  0  0  0  0  0  0  0  0
    1.5277   -0.7656    2.8671 H   0  0  0  0  0  0  0  0  0  0  0  0
    3.7920    1.2746   -0.6700 H   0  0  0  0  0  0  0  0  0  0  0  0
    5.8553    0.8835    2.3150 H   0  0  0  0  0  0  0  0  0  0  0  0
    9.5700    0.5741    0.1995 H   0  0  0  0  0  0  0  0  0  0  0  0
    8.3767    0.5064   -1.9367 H   0  0  0  0  0  0  0  0  0  0  0  0
    5.4653    0.4966   -4.3143 H   0  0  0  0  0  0  0  0  0  0  0  0
    6.8547   -0.4317   -3.6365 H   0  0  0  0  0  0  0  0  0  0  0  0
    6.9204    1.3863   -3.7288 H   0  0  0  0  0  0  0  0  0  0  0  0
   -2.0627   -2.1143    1.9563 H   0  0  0  0  0  0  0  0  0  0  0  0
   -2.8836   -3.3567    0.3219 H   0  0  0  0  0  0  0  0  0  0  0  0
   -2.6016   -1.9146   -0.6579 H   0  0  0  0  0  0  0  0  0  0  0  0
   -0.3364   -2.7855   -1.3113 H   0  0  0  0  0  0  0  0  0  0  0  0
   -1.6928   -3.8471   -1.8196 H   0  0  0  0  0  0  0  0  0  0  0  0
    0.4901   -4.8618   -0.6173 H   0  0  0  0  0  0  0  0  0  0  0  0
   -1.1376   -5.5466   -0.3004 H   0  0  0  0  0  0  0  0  0  0  0  0
    0.5322   -4.8910    1.7233 H   0  0  0  0  0  0  0  0  0  0  0  0
   -1.2489   -4.7056    1.8742 H   0  0  0  0  0  0  0  0  0  0  0  0
    0.7174   -2.5051    1.0119 H   0  0  0  0  0  0  0  0  0  0  0  0
    0.0075   -2.6927    2.6552 H   0  0  0  0  0  0  0  0  0  0  0  0
  1  2  1  0
  2  3  1  0
  3  4  1  0
  4  5  1  0
  5  6  1  0
  6  7  2  0
  7  8  1  0
  8  9  2  0
  9 10  1  0
 10 11  2  0
 10 12  1  0
 12 13  1  0
 13 14  1  0
 14 15  1  0
 15 16  2  0
 15 17  1  0
 17 18  2  0
 17 19  1  0
 19 20  1  0
 20 21  2  0
 21 22  1  0
 22 23  2  0
 23 24  1  0
 24 25  2  0
 25 26  1  0
 26 27  1  0
 22 28  1  0
 12 29  1  0
 29 30  1  0
 30 31  1  0
 31 32  1  0
 32 33  1  0
 33 34  1  0
  7  2  1  0
 11  6  1  0
 25 20  1  0
 34 29  1  0
  1 35  1  0
  1 36  1  0
  1 37  1  0
  3 38  1  0
  3 39  1  0
  4 40  1  0
  4 41  1  0
  5 42  1  0
  5 43  1  0
  8 44  1  0
  9 45  1  0
 11 46  1  0
 12 47  1  6
 13 48  1  0
 13 49  1  0
 14 50  1  0
 19 51  1  0
 21 52  1  0
 23 53  1  0
 24 54  1  0
 27 55  1  0
 27 56  1  0
 27 57  1  0
 29 58  1  0
 30 59  1  0
 30 60  1  0
 31 61  1  0
 31 62  1  0
 32 63  1  0
 32 64  1  0
 33 65  1  0
 33 66  1  0
 34 67  1  0
 34 68  1  0
M  CHG  1  29   1
M  END
$$$$
