
     RDKit          3D

 68 71  0  0  0  0  0  0  0  0999 V2000
   -1.9059    3.8374   -1.6865 C   0  0  0  0  0  0  0  0  0  0  0  0
   -1.4064    2.4909   -1.9854 N   0  0  0  0  0  0  0  0  0  0  0  0
   -0.7824    2.2661   -3.2997 C   0  0  0  0  0  0  0  0  0  0  0  0
   -0.7167    0.7792   -3.6470 C   0  0  0  0  0  0  0  0  0  0  0  0
   -0.0206    0.0067   -2.5303 C   0  0  0  0  0  0  0  0  0  0  0  0
   -0.7102    0.2402   -1.2140 C   0  0  0  0  0  0  0  0  0  0  0  0
   -1.3622    1.4661   -0.9569 C   0  0  0  0  0  0  0  0  0  0  0  0
   -1.9791    1.6542    0.2971 C   0  0  0  0  0  0  0  0  0  0  0  0
   -1.9171    0.6636    1.2794 C   0  0  0  0  0  0  0  0  0  0  0  0
   -1.2338   -0.5375    1.0382 C   0  0  0  0  0  0  0  0  0  0  0  0
   -0.6389   -0.7419   -0.2165 C   0  0  0  0  0  0  0  0  0  0  0  0
   -1.0895   -1.5954    2.1354 C   0  0  1  0  0  0  0  0  0  0  0  0
   -0.3170   -1.0018    3.3620 C   0  0  0  0  0  0  0  0  0  0  0  0
    0.6442    0.0375    2.9819 N   0  0  0  0  0  0  0  0  0  0  0  0
    1.7052   -0.1933    2.0438 C   0  0  0  0  0  0  0  0  0  0  0  0
    2.0713   -1.3709    1.7818 O   0  0  0  0  0  0  0  0  0  0  0  0
    2.3132    0.9405    1.3278 C   0  0  0  0  0  0  0  0  0  0  0  0
    2.1941    2.1046    1.7972 O   0  0  0  0  0  0  0  0  0  0  0  0
    3.0247    0.7259    0.0981 N   0  0  0  0  0  0  0  0  0  0  0  0
    3.2918    1.7663   -0.8614 C   0  0  0  0  0  0  0  0  0  0  0  0
    2.3860    2.8291   -1.0452 C   0  0  0  0  0  0  0  0  0  0  0  0
    2.6496    3.8318   -1.9816 C   0  0  0  0  0  0  0  0  0  0  0  0
    3.8020    3.7683   -2.7653 C   0  0  0  0  0  0  0  0  0  0  0  0
    4.6935    2.7045   -2.6163 C   0  0  0  0  0  0  0  0  0  0  0  0
    4.4470    1.6939   -1.6656 C   0  0  0  0  0  0  0  0  0  0  0  0
    5.3283    0.6149   -1.4874 O   0  0  0  0  0  0  0  0  0  0  0  0
    6.5267    0.4190   -2.2310 C   0  0  0  0  0  0  0  0  0  0  0  0
    1.5304    5.1688   -2.1765 Cl  0  0  0  0  0  0  0  0  0  0  0  0
   -2.4187   -2.1718    2.5243 N   0  0  0  0  0  0  0  0  0  0  0  0
   -3.2299   -2.5278    1.3189 C   0  0  0  0  0  0  0  0  0  0  0  0
   -4.3182   -3.5648    1.6242 C   0  0  0  0  0  0  0  0  0  0  0  0
   -3.6928   -4.8915    2.0831 C   0  0  0  0  0  0  0  0  0  0  0  0
   -2.3400   -4.6869    2.7836 C   0  0  0  0  0  0  0  0  0  0  0  0
   -2.2843   -3.3187    3.4786 C   0  0  0  0  0  0  0  0  0  0  0  0
   -2.9940    3.7954   -1.4707 H   0  0  0  0  0  0  0  0  0  0  0  0
   -1.3632    4.2570   -0.8130 H   0  0  0  0  0  0  0  0  0  0  0  0
   -1.7510    4.5266   -2.5442 H   0  0  0  0  0  0  0  0  0  0  0  0
   -1.3671    2.7822   -4.0922 H   0  0  0  0  0  0  0  0  0  0  0  0
    0.2439    2.6897   -3.2956 H   0  0  0  0  0  0  0  0  0  0  0  0
   -1.7467    0.3842   -3.7906 H   0  0  0  0  0  0  0  0  0  0  0  0
   -0.1562    0.6444   -4.5972 H   0  0  0  0  0  0  0  0  0  0  0  0
   -0.0322   -1.0750   -2.7872 H   0  0  0  0  0  0  0  0  0  0  0  0
    1.0389    0.3330   -2.4488 H   0  0  0  0  0  0  0  0  0  0  0  0
   -2.5085    2.5669    0.5310 H   0  0  0  0  0  0  0  0  0  0  0  0
   -2.3837    0.8432    2.2396 H   0  0  0  0  0  0  0  0  0  0  0  0
   -0.1028   -1.6623   -0.4147 H   0  0  0  0  0  0  0  0  0  0  0  0
   -0.4579   -2.4236    1.7396 H   0  0  0  0  0  0  0  0  0  0  0  0
    0.2412   -1.8009    3.8929 H   0  0  0  0  0  0  0  0  0  0  0  0
   -1.0409   -0.5648    4.0836 H   0  0  0  0  0  0  0  0  0  0  0  0
    0.4723    1.0086    3.3276 H   0  0  0  0  0  0  0  0  0  0  0  0
    3.3728   -0.2374   -0.1081 H   0  0  0  0  0  0  0  0  0  0  0  0
    1.4643    2.8722   -0.4800 H   0  0  0  0  0  0  0  0  0  0  0  0
    4.0064    4.5413   -3.4953 H   0  0  0  0  0  0  0  0  0  0  0  0
    5.5744    2.6794   -3.2429 H   0  0  0  0  0  0  0  0  0  0  0  0
    7.0201   -0.5118   -1.8840 H   0  0  0  0  0  0  0  0  0  0  0  0
    6.2929    0.3155   -3.3117 H   0  0  0  0  0  0  0  0  0  0  0  0
    7.2205    1.2706   -2.0686 H   0  0  0  0  0  0  0  0  0  0  0  0
   -2.9507   -1.4225    3.0289 H   0  0  0  0  0  0  0  0  0  0  0  0
   -3.7279   -1.6186    0.9133 H   0  0  0  0  0  0  0  0  0  0  0  0
   -2.5813   -2.9385    0.5110 H   0  0  0  0  0  0  0  0  0  0  0  0
   -4.9838   -3.1665    2.4212 H   0  0  0  0  0  0  0  0  0  0  0  0
   -4.9383   -3.7380    0.7181 H   0  0  0  0  0  0  0  0  0  0  0  0
   -4.3986   -5.4004    2.7752 H   0  0  0  0  0  0  0  0  0  0  0  0
   -3.5450   -5.5578    1.2053 H   0  0  0  0  0  0  0  0  0  0  0  0
   -1.5169   -4.7488    2.0384 H   0  0  0  0  0  0  0  0  0  0  0  0
   -2.1820   -5.4952    3.5302 H   0  0  0  0  0  0  0  0  0  0  0  0
   -3.1099   -3.2786    4.2259 H   0  0  0  0  0  0  0  0  0  0  0  0
   -1.3533   -3.2768    4.0746 H   0  0  0  0  0  0  0  0  0  0  0  0
  1  2  1  0
  2  3  1  0
  3  4  1  0
  4  5  1  0
  5  6  1  0
  6  7  2  0
  7  8  1  0
  8  9  2  0
  9 10  1  0
 10 11  2  0
 10 12  1  0
 12 13  1  0
 13 14  1  0
 14 15  1  0
 15 16  2  0
 15 17  1  0
 17 18  2  0
 17 19  1  0
 19 20  1  0
 20 21  2  0
 21 22  1  0
 22 23  2  0
 23 24  1  0
 24 25  2  0
 25 26  1  0
 26 27  1  0
 22 28  1  0
 12 29  1  0
 29 30  1  0
 30 31  1  0
 31 32  1  0
 32 33  1  0
 33 34  1  0
  7  2  1  0
 11  6  1  0
 25 20  1  0
 34 29  1  0
  1 35  1  0
  1 36  1  0
  1 37  1  0
  3 38  1  0
  3 39  1  0
  4 40  1  0
  4 41  1  0
  5 42  1  0
  5 43  1  0
  8 44  1  0
  9 45  1  0
 11 46  1  0
 12 47  1  6
 13 48  1  0
 13 49  1  0
 14 50  1  0
 19 51  1  0
 21 52  1  0
 23 53  1  0
 24 54  1  0
 27 55  1  0
 27 56  1  0
 27 57  1  0
 29 58  1  0
 30 59  1  0
 30 60  1  0
 31 61  1  0
 31 62  1  0
 32 63  1  0
 32 64  1  0
 33 65  1  0
 33 66  1  0
 34 67  1  0
 34 68  1  0
M  CHG  1  29   1
M  END
$$$$
