
     RDKit          3D

 68 71  0  0  0  0  0  0  0  0999 V2000
   -3.4015    3.7106    3.1610 C   0  0  0  0  0  0  0  0  0  0  0  0
   -3.6716    3.3191    1.7727 N   0  0  0  0  0  0  0  0  0  0  0  0
   -4.3576    4.2825    0.8981 C   0  0  0  0  0  0  0  0  0  0  0  0
   -5.1158    3.5668   -0.2185 C   0  0  0  0  0  0  0  0  0  0  0  0
   -4.1626    2.6828   -1.0199 C   0  0  0  0  0  0  0  0  0  0  0  0
   -3.4086    1.7380   -0.1209 C   0  0  0  0  0  0  0  0  0  0  0  0
   -3.1585    2.0737    1.2286 C   0  0  0  0  0  0  0  0  0  0  0  0
   -2.4357    1.1652    2.0266 C   0  0  0  0  0  0  0  0  0  0  0  0
   -1.9478   -0.0276    1.4904 C   0  0  0  0  0  0  0  0  0  0  0  0
   -2.1536   -0.3434    0.1364 C   0  0  0  0  0  0  0  0  0  0  0  0
   -2.8979    0.5460   -0.6557 C   0  0  0  0  0  0  0  0  0  0  0  0
   -1.6513   -1.6528   -0.4809 C   0  0  1  0  0  0  0  0  0  0  0  0
   -0.1818   -1.9503   -0.0766 C   0  0  0  0  0  0  0  0  0  0  0  0
    0.7055   -0.8388   -0.4302 N   0  0  0  0  0  0  0  0  0  0  0  0
    2.0992   -0.8598   -0.0880 C   0  0  0  0  0  0  0  0  0  0  0  0
    2.5844   -1.8603    0.5070 O   0  0  0  0  0  0  0  0  0  0  0  0
    2.9706    0.2841   -0.4191 C   0  0  0  0  0  0  0  0  0  0  0  0
    2.4810    1.2894   -1.0020 O   0  0  0  0  0  0  0  0  0  0  0  0
    4.3742    0.2419   -0.1103 N   0  0  0  0  0  0  0  0  0  0  0  0
    5.2386    1.3908   -0.1745 C   0  0  0  0  0  0  0  0  0  0  0  0
    4.7835    2.6549    0.2435 C   0  0  0  0  0  0  0  0  0  0  0  0
    5.6334    3.7632    0.2038 C   0  0  0  0  0  0  0  0  0  0  0  0
    6.9482    3.6182   -0.2412 C   0  0  0  0  0  0  0  0  0  0  0  0
    7.4191    2.3660   -0.6409 C   0  0  0  0  0  0  0  0  0  0  0  0
    6.5715    1.2406   -0.6072 C   0  0  0  0  0  0  0  0  0  0  0  0
    7.0140   -0.0320   -1.0039 O   0  0  0  0  0  0  0  0  0  0  0  0
    8.3300   -0.3228   -1.4633 C   0  0  0  0  0  0  0  0  0  0  0  0
    5.0524    5.3341    0.7256 Cl  0  0  0  0  0  0  0  0  0  0  0  0
   -2.6328   -2.7704   -0.2421 N   0  0  0  0  0  0  0  0  0  0  0  0
   -2.8469   -3.6602   -1.4156 C   0  0  0  0  0  0  0  0  0  0  0  0
   -1.8351   -4.8056   -1.5156 C   0  0  0  0  0  0  0  0  0  0  0  0
   -1.8266   -5.6208   -0.2277 C   0  0  0  0  0  0  0  0  0  0  0  0
   -1.5280   -4.7248    0.9692 C   0  0  0  0  0  0  0  0  0  0  0  0
   -2.4916   -3.5228    1.0358 C   0  0  0  0  0  0  0  0  0  0  0  0
   -3.8749    2.9847    3.8550 H   0  0  0  0  0  0  0  0  0  0  0  0
   -3.8090    4.7191    3.3868 H   0  0  0  0  0  0  0  0  0  0  0  0
   -2.3058    3.7434    3.3384 H   0  0  0  0  0  0  0  0  0  0  0  0
   -3.6074    4.9751    0.4585 H   0  0  0  0  0  0  0  0  0  0  0  0
   -5.0879    4.8856    1.4806 H   0  0  0  0  0  0  0  0  0  0  0  0
   -5.9251    2.9432    0.2216 H   0  0  0  0  0  0  0  0  0  0  0  0
   -5.5815    4.3174   -0.8929 H   0  0  0  0  0  0  0  0  0  0  0  0
   -3.4334    3.3186   -1.5672 H   0  0  0  0  0  0  0  0  0  0  0  0
   -4.7546    2.1120   -1.7683 H   0  0  0  0  0  0  0  0  0  0  0  0
   -2.2417    1.3658    3.0708 H   0  0  0  0  0  0  0  0  0  0  0  0
   -1.4009   -0.6913    2.1433 H   0  0  0  0  0  0  0  0  0  0  0  0
   -3.0845    0.3097   -1.6968 H   0  0  0  0  0  0  0  0  0  0  0  0
   -1.5870   -1.4663   -1.5772 H   0  0  0  0  0  0  0  0  0  0  0  0
   -0.0971   -2.1362    1.0125 H   0  0  0  0  0  0  0  0  0  0  0  0
    0.1816   -2.8473   -0.6095 H   0  0  0  0  0  0  0  0  0  0  0  0
    0.3242   -0.0130   -0.9452 H   0  0  0  0  0  0  0  0  0  0  0  0
    4.8054   -0.6865    0.0997 H   0  0  0  0  0  0  0  0  0  0  0  0
    3.7775    2.7772    0.6232 H   0  0  0  0  0  0  0  0  0  0  0  0
    7.6097    4.4747   -0.2714 H   0  0  0  0  0  0  0  0  0  0  0  0
    8.4443    2.2836   -0.9745 H   0  0  0  0  0  0  0  0  0  0  0  0
    8.3990   -1.4033   -1.7041 H   0  0  0  0  0  0  0  0  0  0  0  0
    8.5516    0.2607   -2.3817 H   0  0  0  0  0  0  0  0  0  0  0  0
    9.0718   -0.0872   -0.6711 H   0  0  0  0  0  0  0  0  0  0  0  0
   -3.5646   -2.2961   -0.1493 H   0  0  0  0  0  0  0  0  0  0  0  0
   -3.8626   -4.1165   -1.3504 H   0  0  0  0  0  0  0  0  0  0  0  0
   -2.8437   -3.0838   -2.3666 H   0  0  0  0  0  0  0  0  0  0  0  0
   -2.1271   -5.4703   -2.3572 H   0  0  0  0  0  0  0  0  0  0  0  0
   -0.8226   -4.4219   -1.7458 H   0  0  0  0  0  0  0  0  0  0  0  0
   -2.8148   -6.1126   -0.0886 H   0  0  0  0  0  0  0  0  0  0  0  0
   -1.0535   -6.4160   -0.2976 H   0  0  0  0  0  0  0  0  0  0  0  0
   -0.4704   -4.4025    0.9378 H   0  0  0  0  0  0  0  0  0  0  0  0
   -1.6423   -5.3237    1.8985 H   0  0  0  0  0  0  0  0  0  0  0  0
   -2.1833   -2.8510    1.8616 H   0  0  0  0  0  0  0  0  0  0  0  0
   -3.4895   -3.9207    1.3336 H   0  0  0  0  0  0  0  0  0  0  0  0
  1  2  1  0
  2  3  1  0
  3  4  1  0
  4  5  1  0
  5  6  1  0
  6  7  2  0
  7  8  1  0
  8  9  2  0
  9 10  1  0
 10 11  2  0
 10 12  1  0
 12 13  1  0
 13 14  1  0
 14 15  1  0
 15 16  2  0
 15 17  1  0
 17 18  2  0
 17 19  1  0
 19 20  1  0
 20 21  2  0
 21 22  1  0
 22 23  2  0
 23 24  1  0
 24 25  2  0
 25 26  1  0
 26 27  1  0
 22 28  1  0
 12 29  1  0
 29 30  1  0
 30 31  1  0
 31 32  1  0
 32 33  1  0
 33 34  1  0
  7  2  1  0
 11  6  1  0
 25 20  1  0
 34 29  1  0
  1 35  1  0
  1 36  1  0
  1 37  1  0
  3 38  1  0
  3 39  1  0
  4 40  1  0
  4 41  1  0
  5 42  1  0
  5 43  1  0
  8 44  1  0
  9 45  1  0
 11 46  1  0
 12 47  1  6
 13 48  1  0
 13 49  1  0
 14 50  1  0
 19 51  1  0
 21 52  1  0
 23 53  1  0
 24 54  1  0
 27 55  1  0
 27 56  1  0
 27 57  1  0
 29 58  1  0
 30 59  1  0
 30 60  1  0
 31 61  1  0
 31 62  1  0
 32 63  1  0
 32 64  1  0
 33 65  1  0
 33 66  1  0
 34 67  1  0
 34 68  1  0
M  CHG  1  29   1
M  END
$$$$
