
     RDKit          3D

 68 71  0  0  0  0  0  0  0  0999 V2000
   -5.4034   -4.2270    0.7284 C   0  0  0  0  0  0  0  0  0  0  0  0
   -5.4097   -2.9790   -0.0438 N   0  0  0  0  0  0  0  0  0  0  0  0
   -6.5549   -2.7104   -0.9270 C   0  0  0  0  0  0  0  0  0  0  0  0
   -6.7612   -1.2085   -1.1149 C   0  0  0  0  0  0  0  0  0  0  0  0
   -5.4884   -0.5666   -1.6630 C   0  0  0  0  0  0  0  0  0  0  0  0
   -4.2969   -0.8949   -0.8020 C   0  0  0  0  0  0  0  0  0  0  0  0
   -4.2636   -2.0865   -0.0415 C   0  0  0  0  0  0  0  0  0  0  0  0
   -3.1152   -2.3660    0.7265 C   0  0  0  0  0  0  0  0  0  0  0  0
   -2.0232   -1.4966    0.7215 C   0  0  0  0  0  0  0  0  0  0  0  0
   -2.0465   -0.3240   -0.0473 C   0  0  0  0  0  0  0  0  0  0  0  0
   -3.1870   -0.0373   -0.8153 C   0  0  0  0  0  0  0  0  0  0  0  0
   -0.8455    0.6181   -0.0456 C   0  0  1  0  0  0  0  0  0  0  0  0
   -0.2638    0.6595   -1.4907 C   0  0  0  0  0  0  0  0  0  0  0  0
    1.1770    0.9164   -1.4919 N   0  0  0  0  0  0  0  0  0  0  0  0
    2.1342   -0.0637   -1.0598 C   0  0  0  0  0  0  0  0  0  0  0  0
    1.7472   -1.2165   -0.7255 O   0  0  0  0  0  0  0  0  0  0  0  0
    3.5714    0.2652   -1.0090 C   0  0  0  0  0  0  0  0  0  0  0  0
    3.9556    1.4195   -1.3405 O   0  0  0  0  0  0  0  0  0  0  0  0
    4.5240   -0.7077   -0.5468 N   0  0  0  0  0  0  0  0  0  0  0  0
    5.9489   -0.5488   -0.6712 C   0  0  0  0  0  0  0  0  0  0  0  0
    6.5086    0.0205   -1.8297 C   0  0  0  0  0  0  0  0  0  0  0  0
    7.8939    0.1500   -1.9578 C   0  0  0  0  0  0  0  0  0  0  0  0
    8.7336   -0.2985   -0.9372 C   0  0  0  0  0  0  0  0  0  0  0  0
    8.1928   -0.8829    0.2098 C   0  0  0  0  0  0  0  0  0  0  0  0
    6.7972   -1.0177    0.3519 C   0  0  0  0  0  0  0  0  0  0  0  0
    6.2218   -1.5992    1.4936 O   0  0  0  0  0  0  0  0  0  0  0  0
    6.9595   -2.1096    2.5994 C   0  0  0  0  0  0  0  0  0  0  0  0
    8.5787    0.8638   -3.4066 Cl  0  0  0  0  0  0  0  0  0  0  0  0
   -1.2106    1.9760    0.4737 N   0  0  0  0  0  0  0  0  0  0  0  0
   -0.0426    2.9045    0.4383 C   0  0  0  0  0  0  0  0  0  0  0  0
   -0.1891    4.1371    1.3601 C   0  0  0  0  0  0  0  0  0  0  0  0
   -1.6541    4.4472    1.6512 C   0  0  0  0  0  0  0  0  0  0  0  0
   -2.3419    3.2462    2.3141 C   0  0  0  0  0  0  0  0  0  0  0  0
   -1.7512    1.8963    1.8560 C   0  0  0  0  0  0  0  0  0  0  0  0
   -5.3224   -3.9981    1.8118 H   0  0  0  0  0  0  0  0  0  0  0  0
   -6.3350   -4.8105    0.5683 H   0  0  0  0  0  0  0  0  0  0  0  0
   -4.5501   -4.8632    0.4119 H   0  0  0  0  0  0  0  0  0  0  0  0
   -6.3757   -3.1910   -1.9134 H   0  0  0  0  0  0  0  0  0  0  0  0
   -7.4876   -3.1368   -0.4975 H   0  0  0  0  0  0  0  0  0  0  0  0
   -7.5998   -1.0334   -1.8229 H   0  0  0  0  0  0  0  0  0  0  0  0
   -7.0252   -0.7441   -0.1391 H   0  0  0  0  0  0  0  0  0  0  0  0
   -5.2991   -0.9329   -2.6953 H   0  0  0  0  0  0  0  0  0  0  0  0
   -5.6386    0.5343   -1.7082 H   0  0  0  0  0  0  0  0  0  0  0  0
   -3.0494   -3.2557    1.3366 H   0  0  0  0  0  0  0  0  0  0  0  0
   -1.1567   -1.7418    1.3229 H   0  0  0  0  0  0  0  0  0  0  0  0
   -3.2127    0.8549   -1.4287 H   0  0  0  0  0  0  0  0  0  0  0  0
   -0.0683    0.1845    0.6245 H   0  0  0  0  0  0  0  0  0  0  0  0
   -0.4423   -0.3042   -2.0185 H   0  0  0  0  0  0  0  0  0  0  0  0
   -0.7814    1.4448   -2.0834 H   0  0  0  0  0  0  0  0  0  0  0  0
    1.5164    1.8167   -1.8990 H   0  0  0  0  0  0  0  0  0  0  0  0
    4.1665   -1.5373   -0.0216 H   0  0  0  0  0  0  0  0  0  0  0  0
    5.8728    0.3420   -2.6444 H   0  0  0  0  0  0  0  0  0  0  0  0
    9.8075   -0.2013   -1.0343 H   0  0  0  0  0  0  0  0  0  0  0  0
    8.8689   -1.2266    0.9805 H   0  0  0  0  0  0  0  0  0  0  0  0
    6.2513   -2.5099    3.3534 H   0  0  0  0  0  0  0  0  0  0  0  0
    7.6266   -2.9325    2.2663 H   0  0  0  0  0  0  0  0  0  0  0  0
    7.5560   -1.2983    3.0677 H   0  0  0  0  0  0  0  0  0  0  0  0
   -1.9566    2.3740   -0.1455 H   0  0  0  0  0  0  0  0  0  0  0  0
    0.0932    3.2805   -0.5998 H   0  0  0  0  0  0  0  0  0  0  0  0
    0.8926    2.3762    0.7315 H   0  0  0  0  0  0  0  0  0  0  0  0
    0.3352    3.9456    2.3227 H   0  0  0  0  0  0  0  0  0  0  0  0
    0.2926    5.0208    0.8881 H   0  0  0  0  0  0  0  0  0  0  0  0
   -1.7257    5.3343    2.3169 H   0  0  0  0  0  0  0  0  0  0  0  0
   -2.1698    4.6968    0.6976 H   0  0  0  0  0  0  0  0  0  0  0  0
   -2.2435    3.3241    3.4189 H   0  0  0  0  0  0  0  0  0  0  0  0
   -3.4268    3.2803    2.0721 H   0  0  0  0  0  0  0  0  0  0  0  0
   -0.9456    1.5856    2.5603 H   0  0  0  0  0  0  0  0  0  0  0  0
   -2.5633    1.1432    1.9388 H   0  0  0  0  0  0  0  0  0  0  0  0
  1  2  1  0
  2  3  1  0
  3  4  1  0
  4  5  1  0
  5  6  1  0
  6  7  2  0
  7  8  1  0
  8  9  2  0
  9 10  1  0
 10 11  2  0
 10 12  1  0
 12 13  1  0
 13 14  1  0
 14 15  1  0
 15 16  2  0
 15 17  1  0
 17 18  2  0
 17 19  1  0
 19 20  1  0
 20 21  2  0
 21 22  1  0
 22 23  2  0
 23 24  1  0
 24 25  2  0
 25 26  1  0
 26 27  1  0
 22 28  1  0
 12 29  1  0
 29 30  1  0
 30 31  1  0
 31 32  1  0
 32 33  1  0
 33 34  1  0
  7  2  1  0
 11  6  1  0
 25 20  1  0
 34 29  1  0
  1 35  1  0
  1 36  1  0
  1 37  1  0
  3 38  1  0
  3 39  1  0
  4 40  1  0
  4 41  1  0
  5 42  1  0
  5 43  1  0
  8 44  1  0
  9 45  1  0
 11 46  1  0
 12 47  1  1
 13 48  1  0
 13 49  1  0
 14 50  1  0
 19 51  1  0
 21 52  1  0
 23 53  1  0
 24 54  1  0
 27 55  1  0
 27 56  1  0
 27 57  1  0
 29 58  1  0
 30 59  1  0
 30 60  1  0
 31 61  1  0
 31 62  1  0
 32 63  1  0
 32 64  1  0
 33 65  1  0
 33 66  1  0
 34 67  1  0
 34 68  1  0
M  CHG  1  29   1
M  END
$$$$
