
     RDKit          3D

 68 71  0  0  0  0  0  0  0  0999 V2000
   -3.6169   -3.6935   -2.0475 C   0  0  0  0  0  0  0  0  0  0  0  0
   -3.2352   -3.2284   -0.7090 N   0  0  0  0  0  0  0  0  0  0  0  0
   -3.3255   -4.1778    0.4108 C   0  0  0  0  0  0  0  0  0  0  0  0
   -3.5371   -3.4457    1.7348 C   0  0  0  0  0  0  0  0  0  0  0  0
   -2.4144   -2.4360    1.9638 C   0  0  0  0  0  0  0  0  0  0  0  0
   -2.2725   -1.5022    0.7904 C   0  0  0  0  0  0  0  0  0  0  0  0
   -2.6541   -1.9125   -0.5069 C   0  0  0  0  0  0  0  0  0  0  0  0
   -2.4865   -1.0105   -1.5760 C   0  0  0  0  0  0  0  0  0  0  0  0
   -1.9253    0.2502   -1.3671 C   0  0  0  0  0  0  0  0  0  0  0  0
   -1.5031    0.6455   -0.0858 C   0  0  0  0  0  0  0  0  0  0  0  0
   -1.6930   -0.2400    0.9871 C   0  0  0  0  0  0  0  0  0  0  0  0
   -0.8909    2.0209    0.1849 C   0  0  1  0  0  0  0  0  0  0  0  0
    0.0590    2.4983   -0.9520 C   0  0  0  0  0  0  0  0  0  0  0  0
    1.0561    1.4725   -1.2628 N   0  0  0  0  0  0  0  0  0  0  0  0
    2.1472    1.1609   -0.3824 C   0  0  0  0  0  0  0  0  0  0  0  0
    2.3559    1.8719    0.6378 O   0  0  0  0  0  0  0  0  0  0  0  0
    3.0328    0.0155   -0.6653 C   0  0  0  0  0  0  0  0  0  0  0  0
    2.8273   -0.6888   -1.6908 O   0  0  0  0  0  0  0  0  0  0  0  0
    4.0959   -0.3229    0.2418 N   0  0  0  0  0  0  0  0  0  0  0  0
    5.1222   -1.2857   -0.0589 C   0  0  0  0  0  0  0  0  0  0  0  0
    5.6815   -1.3587   -1.3477 C   0  0  0  0  0  0  0  0  0  0  0  0
    6.6953   -2.2780   -1.6295 C   0  0  0  0  0  0  0  0  0  0  0  0
    7.1686   -3.1239   -0.6252 C   0  0  0  0  0  0  0  0  0  0  0  0
    6.6357   -3.0494    0.6632 C   0  0  0  0  0  0  0  0  0  0  0  0
    5.6117   -2.1278    0.9598 C   0  0  0  0  0  0  0  0  0  0  0  0
    5.0529   -2.0295    2.2446 O   0  0  0  0  0  0  0  0  0  0  0  0
    5.4489   -2.8202    3.3605 C   0  0  0  0  0  0  0  0  0  0  0  0
    7.3825   -2.3604   -3.2415 Cl  0  0  0  0  0  0  0  0  0  0  0  0
   -1.9403    3.0139    0.5734 N   0  0  0  0  0  0  0  0  0  0  0  0
   -1.3533    4.2034    1.2384 C   0  0  0  0  0  0  0  0  0  0  0  0
   -2.4515    5.1171    1.8033 C   0  0  0  0  0  0  0  0  0  0  0  0
   -3.4201    5.5411    0.6964 C   0  0  0  0  0  0  0  0  0  0  0  0
   -3.9677    4.3177   -0.0431 C   0  0  0  0  0  0  0  0  0  0  0  0
   -2.8187    3.4314   -0.5476 C   0  0  0  0  0  0  0  0  0  0  0  0
   -2.7385   -3.6560   -2.7257 H   0  0  0  0  0  0  0  0  0  0  0  0
   -4.4316   -3.0548   -2.4490 H   0  0  0  0  0  0  0  0  0  0  0  0
   -3.9806   -4.7429   -2.0261 H   0  0  0  0  0  0  0  0  0  0  0  0
   -4.1778   -4.8762    0.2616 H   0  0  0  0  0  0  0  0  0  0  0  0
   -2.3900   -4.7766    0.4582 H   0  0  0  0  0  0  0  0  0  0  0  0
   -4.5170   -2.9194    1.7166 H   0  0  0  0  0  0  0  0  0  0  0  0
   -3.5513   -4.1805    2.5686 H   0  0  0  0  0  0  0  0  0  0  0  0
   -1.4530   -2.9731    2.1153 H   0  0  0  0  0  0  0  0  0  0  0  0
   -2.6393   -1.8608    2.8885 H   0  0  0  0  0  0  0  0  0  0  0  0
   -2.7886   -1.2684   -2.5812 H   0  0  0  0  0  0  0  0  0  0  0  0
   -1.8250    0.9120   -2.2157 H   0  0  0  0  0  0  0  0  0  0  0  0
   -1.3879    0.0541    1.9847 H   0  0  0  0  0  0  0  0  0  0  0  0
   -0.2245    1.8803    1.0665 H   0  0  0  0  0  0  0  0  0  0  0  0
   -0.5074    2.7289   -1.8760 H   0  0  0  0  0  0  0  0  0  0  0  0
    0.5881    3.4282   -0.6594 H   0  0  0  0  0  0  0  0  0  0  0  0
    0.9727    0.9687   -2.1745 H   0  0  0  0  0  0  0  0  0  0  0  0
    4.0752    0.0890    1.2018 H   0  0  0  0  0  0  0  0  0  0  0  0
    5.3487   -0.6869   -2.1281 H   0  0  0  0  0  0  0  0  0  0  0  0
    7.9554   -3.8360   -0.8400 H   0  0  0  0  0  0  0  0  0  0  0  0
    7.0270   -3.7133    1.4217 H   0  0  0  0  0  0  0  0  0  0  0  0
    5.2733   -3.8959    3.1478 H   0  0  0  0  0  0  0  0  0  0  0  0
    4.8436   -2.5297    4.2434 H   0  0  0  0  0  0  0  0  0  0  0  0
    6.5209   -2.6451    3.5915 H   0  0  0  0  0  0  0  0  0  0  0  0
   -2.5460    2.5403    1.2879 H   0  0  0  0  0  0  0  0  0  0  0  0
   -0.7378    4.7949    0.5263 H   0  0  0  0  0  0  0  0  0  0  0  0
   -0.6981    3.8928    2.0827 H   0  0  0  0  0  0  0  0  0  0  0  0
   -1.9870    6.0209    2.2530 H   0  0  0  0  0  0  0  0  0  0  0  0
   -3.0087    4.5821    2.6034 H   0  0  0  0  0  0  0  0  0  0  0  0
   -2.8942    6.2063   -0.0235 H   0  0  0  0  0  0  0  0  0  0  0  0
   -4.2627    6.1133    1.1406 H   0  0  0  0  0  0  0  0  0  0  0  0
   -4.6216    3.7303    0.6384 H   0  0  0  0  0  0  0  0  0  0  0  0
   -4.5833    4.6533   -0.9054 H   0  0  0  0  0  0  0  0  0  0  0  0
   -3.2721    2.5475   -1.0412 H   0  0  0  0  0  0  0  0  0  0  0  0
   -2.2484    4.0044   -1.3106 H   0  0  0  0  0  0  0  0  0  0  0  0
  1  2  1  0
  2  3  1  0
  3  4  1  0
  4  5  1  0
  5  6  1  0
  6  7  2  0
  7  8  1  0
  8  9  2  0
  9 10  1  0
 10 11  2  0
 10 12  1  0
 12 13  1  0
 13 14  1  0
 14 15  1  0
 15 16  2  0
 15 17  1  0
 17 18  2  0
 17 19  1  0
 19 20  1  0
 20 21  2  0
 21 22  1  0
 22 23  2  0
 23 24  1  0
 24 25  2  0
 25 26  1  0
 26 27  1  0
 22 28  1  0
 12 29  1  0
 29 30  1  0
 30 31  1  0
 31 32  1  0
 32 33  1  0
 33 34  1  0
  7  2  1  0
 11  6  1  0
 25 20  1  0
 34 29  1  0
  1 35  1  0
  1 36  1  0
  1 37  1  0
  3 38  1  0
  3 39  1  0
  4 40  1  0
  4 41  1  0
  5 42  1  0
  5 43  1  0
  8 44  1  0
  9 45  1  0
 11 46  1  0
 12 47  1  1
 13 48  1  0
 13 49  1  0
 14 50  1  0
 19 51  1  0
 21 52  1  0
 23 53  1  0
 24 54  1  0
 27 55  1  0
 27 56  1  0
 27 57  1  0
 29 58  1  0
 30 59  1  0
 30 60  1  0
 31 61  1  0
 31 62  1  0
 32 63  1  0
 32 64  1  0
 33 65  1  0
 33 66  1  0
 34 67  1  0
 34 68  1  0
M  CHG  1  29   1
M  END
$$$$
