
     RDKit          3D

 60 61  0  0  0  0  0  0  0  0999 V2000
   -1.0005    3.8705    3.1350 C   0  0  0  0  0  0  0  0  0  0  0  0
   -1.7454    3.2451    1.9580 C   0  0  0  0  0  0  0  0  0  0  0  0
   -0.9004    3.2604    0.6778 C   0  0  0  0  0  0  0  0  0  0  0  0
    0.3057    2.5099    0.8316 O   0  0  0  0  0  0  0  0  0  0  0  0
    0.4318    1.1241    1.0460 C   0  0  0  0  0  0  0  0  0  0  0  0
    1.6649    0.6784    1.5315 C   0  0  0  0  0  0  0  0  0  0  0  0
    1.8884   -0.6709    1.7968 C   0  0  0  0  0  0  0  0  0  0  0  0
    0.8728   -1.6154    1.5977 C   0  0  0  0  0  0  0  0  0  0  0  0
   -0.3581   -1.1826    1.0737 C   0  0  0  0  0  0  0  0  0  0  0  0
   -0.5902    0.1782    0.7831 C   0  0  0  0  0  0  0  0  0  0  0  0
   -1.8034    0.5959    0.2161 O   0  0  0  0  0  0  0  0  0  0  0  0
   -2.9054   -0.2587   -0.0826 C   0  0  0  0  0  0  0  0  0  0  0  0
   -4.0623    0.5608   -0.6521 C   0  0  0  0  0  0  0  0  0  0  0  0
   -3.7247    1.1442   -2.0215 C   0  0  0  0  0  0  0  0  0  0  0  0
    1.1762   -3.0843    1.8461 C   0  0  1  0  0  0  0  0  0  0  0  0
   -0.0052   -3.8959    2.3974 C   0  0  0  0  0  0  0  0  0  0  0  0
    1.7456   -3.7013    0.6435 N   0  0  0  0  0  0  0  0  0  0  0  0
    1.0953   -3.7184   -0.6366 C   0  0  0  0  0  0  0  0  0  0  0  0
   -0.1602   -3.7679   -0.7225 O   0  0  0  0  0  0  0  0  0  0  0  0
    1.9190   -3.6409   -1.8829 C   0  0  0  0  0  0  0  0  0  0  0  0
    2.6530   -2.4168   -1.9003 O   0  0  0  0  0  0  0  0  0  0  0  0
    2.0980   -1.1306   -2.0304 C   0  0  0  0  0  0  0  0  0  0  0  0
    0.7664   -0.9429   -2.4481 C   0  0  0  0  0  0  0  0  0  0  0  0
    0.2489    0.3401   -2.6241 C   0  0  0  0  0  0  0  0  0  0  0  0
    1.0451    1.4680   -2.3826 C   0  0  0  0  0  0  0  0  0  0  0  0
    2.3660    1.2880   -1.9442 C   0  0  0  0  0  0  0  0  0  0  0  0
    2.9025    0.0006   -1.7575 C   0  0  0  0  0  0  0  0  0  0  0  0
    4.2572   -0.1379   -1.2811 N   0  0  0  0  0  0  0  0  0  0  0  0
    4.6596   -1.2106   -0.7857 O   0  0  0  0  0  0  0  0  0  0  0  0
    5.1093    0.9428   -1.2874 O   0  0  0  0  0  0  0  0  0  0  0  0
    0.5036    2.8307   -2.5823 C   0  0  0  0  0  0  0  0  0  0  0  0
   -0.6549    2.9983   -3.0475 O   0  0  0  0  0  0  0  0  0  0  0  0
    1.2674    3.9469   -2.2613 O   0  0  0  0  0  0  0  0  0  0  0  0
   -0.7190    4.9193    2.9013 H   0  0  0  0  0  0  0  0  0  0  0  0
   -1.6564    3.8705    4.0309 H   0  0  0  0  0  0  0  0  0  0  0  0
   -0.0846    3.2872    3.3684 H   0  0  0  0  0  0  0  0  0  0  0  0
   -2.0324    2.2062    2.2217 H   0  0  0  0  0  0  0  0  0  0  0  0
   -2.6794    3.8193    1.7773 H   0  0  0  0  0  0  0  0  0  0  0  0
   -0.6247    4.3111    0.4461 H   0  0  0  0  0  0  0  0  0  0  0  0
   -1.4831    2.9035   -0.1929 H   0  0  0  0  0  0  0  0  0  0  0  0
    2.4616    1.3905    1.7064 H   0  0  0  0  0  0  0  0  0  0  0  0
    2.8614   -0.9793    2.1591 H   0  0  0  0  0  0  0  0  0  0  0  0
   -1.1307   -1.9075    0.8759 H   0  0  0  0  0  0  0  0  0  0  0  0
   -2.5969   -1.0359   -0.8161 H   0  0  0  0  0  0  0  0  0  0  0  0
   -3.2500   -0.7552    0.8503 H   0  0  0  0  0  0  0  0  0  0  0  0
   -4.3135    1.3856    0.0498 H   0  0  0  0  0  0  0  0  0  0  0  0
   -4.9548   -0.0940   -0.7515 H   0  0  0  0  0  0  0  0  0  0  0  0
   -2.8616    1.8363   -1.9453 H   0  0  0  0  0  0  0  0  0  0  0  0
   -4.5974    1.7108   -2.4088 H   0  0  0  0  0  0  0  0  0  0  0  0
   -3.4818    0.3319   -2.7391 H   0  0  0  0  0  0  0  0  0  0  0  0
    1.9513   -3.1307    2.6448 H   0  0  0  0  0  0  0  0  0  0  0  0
   -0.4125   -3.4010    3.3048 H   0  0  0  0  0  0  0  0  0  0  0  0
    0.3436   -4.9112    2.6820 H   0  0  0  0  0  0  0  0  0  0  0  0
   -0.8224   -4.0125    1.6597 H   0  0  0  0  0  0  0  0  0  0  0  0
    2.7609   -3.9487    0.6710 H   0  0  0  0  0  0  0  0  0  0  0  0
    2.6392   -4.4853   -1.8837 H   0  0  0  0  0  0  0  0  0  0  0  0
    1.2934   -3.7377   -2.7958 H   0  0  0  0  0  0  0  0  0  0  0  0
    0.1214   -1.7833   -2.6584 H   0  0  0  0  0  0  0  0  0  0  0  0
   -0.7768    0.4477   -2.9534 H   0  0  0  0  0  0  0  0  0  0  0  0
    2.9795    2.1549   -1.7358 H   0  0  0  0  0  0  0  0  0  0  0  0
  1  2  1  0
  2  3  1  0
  3  4  1  0
  4  5  1  0
  5  6  2  0
  6  7  1  0
  7  8  2  0
  8  9  1  0
  9 10  2  0
 10 11  1  0
 11 12  1  0
 12 13  1  0
 13 14  1  0
  8 15  1  0
 15 16  1  0
 15 17  1  0
 17 18  1  0
 18 19  2  0
 18 20  1  0
 20 21  1  0
 21 22  1  0
 22 23  2  0
 23 24  1  0
 24 25  2  0
 25 26  1  0
 26 27  2  0
 27 28  1  0
 28 29  2  0
 28 30  1  0
 25 31  1  0
 31 32  2  0
 31 33  1  0
 10  5  1  0
 27 22  1  0
  1 34  1  0
  1 35  1  0
  1 36  1  0
  2 37  1  0
  2 38  1  0
  3 39  1  0
  3 40  1  0
  6 41  1  0
  7 42  1  0
  9 43  1  0
 12 44  1  0
 12 45  1  0
 13 46  1  0
 13 47  1  0
 14 48  1  0
 14 49  1  0
 14 50  1  0
 15 51  1  1
 16 52  1  0
 16 53  1  0
 16 54  1  0
 17 55  1  0
 20 56  1  0
 20 57  1  0
 23 58  1  0
 24 59  1  0
 26 60  1  0
M  CHG  3  28   1  30  -1  33  -1
M  END
$$$$
