
     RDKit          3D

 60 61  0  0  0  0  0  0  0  0999 V2000
    2.9866   -2.4323   -4.5344 C   0  0  0  0  0  0  0  0  0  0  0  0
    3.2516   -2.1713   -3.0546 C   0  0  0  0  0  0  0  0  0  0  0  0
    1.9619   -1.8280   -2.3142 C   0  0  0  0  0  0  0  0  0  0  0  0
    2.2609   -1.5697   -0.9460 O   0  0  0  0  0  0  0  0  0  0  0  0
    1.3404   -1.2252    0.0604 C   0  0  0  0  0  0  0  0  0  0  0  0
    1.8583   -1.0570    1.3480 C   0  0  0  0  0  0  0  0  0  0  0  0
    1.0329   -0.7129    2.4157 C   0  0  0  0  0  0  0  0  0  0  0  0
   -0.3464   -0.5505    2.2237 C   0  0  0  0  0  0  0  0  0  0  0  0
   -0.8745   -0.6946    0.9314 C   0  0  0  0  0  0  0  0  0  0  0  0
   -0.0477   -1.0323   -0.1613 C   0  0  0  0  0  0  0  0  0  0  0  0
   -0.5694   -1.1576   -1.4603 O   0  0  0  0  0  0  0  0  0  0  0  0
   -1.9397   -1.0270   -1.8375 C   0  0  0  0  0  0  0  0  0  0  0  0
   -2.7206   -2.2930   -1.4750 C   0  0  0  0  0  0  0  0  0  0  0  0
   -4.1898   -2.1637   -1.8640 C   0  0  0  0  0  0  0  0  0  0  0  0
   -1.2441   -0.1171    3.3656 C   0  0  1  0  0  0  0  0  0  0  0  0
   -1.1261   -1.0479    4.5773 C   0  0  0  0  0  0  0  0  0  0  0  0
   -0.9111    1.2563    3.7436 N   0  0  0  0  0  0  0  0  0  0  0  0
   -1.4923    2.3712    3.0576 C   0  0  0  0  0  0  0  0  0  0  0  0
   -2.6841    2.3168    2.6505 O   0  0  0  0  0  0  0  0  0  0  0  0
   -0.6671    3.5896    2.7841 C   0  0  0  0  0  0  0  0  0  0  0  0
    0.4650    3.2442    1.9843 O   0  0  0  0  0  0  0  0  0  0  0  0
    0.4259    2.8262    0.6411 C   0  0  0  0  0  0  0  0  0  0  0  0
   -0.7634    2.8824   -0.1107 C   0  0  0  0  0  0  0  0  0  0  0  0
   -0.7795    2.5015   -1.4515 C   0  0  0  0  0  0  0  0  0  0  0  0
    0.3919    2.0645   -2.0812 C   0  0  0  0  0  0  0  0  0  0  0  0
    1.5797    1.9923   -1.3358 C   0  0  0  0  0  0  0  0  0  0  0  0
    1.6104    2.3582    0.0250 C   0  0  0  0  0  0  0  0  0  0  0  0
    2.8436    2.2419    0.7662 N   0  0  0  0  0  0  0  0  0  0  0  0
    3.9232    2.0480    0.1694 O   0  0  0  0  0  0  0  0  0  0  0  0
    2.8514    2.2596    2.1420 O   0  0  0  0  0  0  0  0  0  0  0  0
    0.3714    1.6893   -3.5127 C   0  0  0  0  0  0  0  0  0  0  0  0
    1.4397    1.4036   -4.1164 O   0  0  0  0  0  0  0  0  0  0  0  0
   -0.8282    1.6539   -4.2142 O   0  0  0  0  0  0  0  0  0  0  0  0
    2.2852   -3.2851   -4.6564 H   0  0  0  0  0  0  0  0  0  0  0  0
    2.5525   -1.5288   -5.0134 H   0  0  0  0  0  0  0  0  0  0  0  0
    3.9409   -2.6811   -5.0447 H   0  0  0  0  0  0  0  0  0  0  0  0
    3.7095   -3.0764   -2.6000 H   0  0  0  0  0  0  0  0  0  0  0  0
    3.9687   -1.3273   -2.9571 H   0  0  0  0  0  0  0  0  0  0  0  0
    1.5145   -0.9231   -2.7742 H   0  0  0  0  0  0  0  0  0  0  0  0
    1.2564   -2.6845   -2.3868 H   0  0  0  0  0  0  0  0  0  0  0  0
    2.9200   -1.1826    1.5200 H   0  0  0  0  0  0  0  0  0  0  0  0
    1.4778   -0.5617    3.3901 H   0  0  0  0  0  0  0  0  0  0  0  0
   -1.9309   -0.5239    0.7858 H   0  0  0  0  0  0  0  0  0  0  0  0
   -2.3896   -0.1208   -1.3791 H   0  0  0  0  0  0  0  0  0  0  0  0
   -1.9780   -0.8888   -2.9389 H   0  0  0  0  0  0  0  0  0  0  0  0
   -2.2772   -3.1614   -2.0086 H   0  0  0  0  0  0  0  0  0  0  0  0
   -2.6536   -2.4881   -0.3843 H   0  0  0  0  0  0  0  0  0  0  0  0
   -4.7271   -3.0996   -1.6025 H   0  0  0  0  0  0  0  0  0  0  0  0
   -4.2866   -1.9916   -2.9573 H   0  0  0  0  0  0  0  0  0  0  0  0
   -4.6595   -1.3191   -1.3160 H   0  0  0  0  0  0  0  0  0  0  0  0
   -2.3087   -0.1639    3.0442 H   0  0  0  0  0  0  0  0  0  0  0  0
   -1.8741   -0.7564    5.3449 H   0  0  0  0  0  0  0  0  0  0  0  0
   -1.3269   -2.0974    4.2733 H   0  0  0  0  0  0  0  0  0  0  0  0
   -0.1178   -0.9904    5.0376 H   0  0  0  0  0  0  0  0  0  0  0  0
   -0.0216    1.4189    4.2689 H   0  0  0  0  0  0  0  0  0  0  0  0
   -1.2653    4.3852    2.2904 H   0  0  0  0  0  0  0  0  0  0  0  0
   -0.3058    3.9958    3.7515 H   0  0  0  0  0  0  0  0  0  0  0  0
   -1.6856    3.2362    0.3253 H   0  0  0  0  0  0  0  0  0  0  0  0
   -1.7115    2.5637   -1.9993 H   0  0  0  0  0  0  0  0  0  0  0  0
    2.4833    1.6330   -1.8119 H   0  0  0  0  0  0  0  0  0  0  0  0
  1  2  1  0
  2  3  1  0
  3  4  1  0
  4  5  1  0
  5  6  2  0
  6  7  1  0
  7  8  2  0
  8  9  1  0
  9 10  2  0
 10 11  1  0
 11 12  1  0
 12 13  1  0
 13 14  1  0
  8 15  1  0
 15 16  1  0
 15 17  1  0
 17 18  1  0
 18 19  2  0
 18 20  1  0
 20 21  1  0
 21 22  1  0
 22 23  2  0
 23 24  1  0
 24 25  2  0
 25 26  1  0
 26 27  2  0
 27 28  1  0
 28 29  2  0
 28 30  1  0
 25 31  1  0
 31 32  2  0
 31 33  1  0
 10  5  1  0
 27 22  1  0
  1 34  1  0
  1 35  1  0
  1 36  1  0
  2 37  1  0
  2 38  1  0
  3 39  1  0
  3 40  1  0
  6 41  1  0
  7 42  1  0
  9 43  1  0
 12 44  1  0
 12 45  1  0
 13 46  1  0
 13 47  1  0
 14 48  1  0
 14 49  1  0
 14 50  1  0
 15 51  1  6
 16 52  1  0
 16 53  1  0
 16 54  1  0
 17 55  1  0
 20 56  1  0
 20 57  1  0
 23 58  1  0
 24 59  1  0
 26 60  1  0
M  CHG  3  28   1  30  -1  33  -1
M  END
$$$$
