
     RDKit          3D

 60 61  0  0  0  0  0  0  0  0999 V2000
   -7.2019    3.0066   -1.4528 C   0  0  0  0  0  0  0  0  0  0  0  0
   -5.9589    2.1441   -1.6506 C   0  0  0  0  0  0  0  0  0  0  0  0
   -5.0896    2.1280   -0.3956 C   0  0  0  0  0  0  0  0  0  0  0  0
   -3.9441    1.3120   -0.6263 O   0  0  0  0  0  0  0  0  0  0  0  0
   -2.9328    1.0729    0.3174 C   0  0  0  0  0  0  0  0  0  0  0  0
   -2.9652    1.6374    1.6060 C   0  0  0  0  0  0  0  0  0  0  0  0
   -1.9402    1.3790    2.5169 C   0  0  0  0  0  0  0  0  0  0  0  0
   -0.8604    0.5605    2.1585 C   0  0  0  0  0  0  0  0  0  0  0  0
   -0.8354   -0.0177    0.8776 C   0  0  0  0  0  0  0  0  0  0  0  0
   -1.8642    0.2408   -0.0493 C   0  0  0  0  0  0  0  0  0  0  0  0
   -1.8635   -0.2996   -1.3471 O   0  0  0  0  0  0  0  0  0  0  0  0
   -0.9052   -1.2221   -1.8684 C   0  0  0  0  0  0  0  0  0  0  0  0
   -1.1307   -2.6345   -1.3154 C   0  0  0  0  0  0  0  0  0  0  0  0
   -2.5061   -3.1778   -1.6950 C   0  0  0  0  0  0  0  0  0  0  0  0
    0.2305    0.2641    3.1680 C   0  0  1  0  0  0  0  0  0  0  0  0
   -0.0383   -1.0839    3.8433 C   0  0  0  0  0  0  0  0  0  0  0  0
    1.5502    0.2634    2.5260 N   0  0  0  0  0  0  0  0  0  0  0  0
    2.1084    1.4422    1.9280 C   0  0  0  0  0  0  0  0  0  0  0  0
    1.5549    2.5630    2.0935 O   0  0  0  0  0  0  0  0  0  0  0  0
    3.3633    1.3508    1.1201 C   0  0  0  0  0  0  0  0  0  0  0  0
    3.2661    0.2489    0.2210 O   0  0  0  0  0  0  0  0  0  0  0  0
    4.2581   -0.1309   -0.6973 C   0  0  0  0  0  0  0  0  0  0  0  0
    5.4362    0.6224   -0.8576 C   0  0  0  0  0  0  0  0  0  0  0  0
    6.3929    0.2543   -1.8036 C   0  0  0  0  0  0  0  0  0  0  0  0
    6.1976   -0.8738   -2.6119 C   0  0  0  0  0  0  0  0  0  0  0  0
    5.0285   -1.6355   -2.4488 C   0  0  0  0  0  0  0  0  0  0  0  0
    4.0600   -1.2839   -1.4910 C   0  0  0  0  0  0  0  0  0  0  0  0
    2.8871   -2.1071   -1.3356 N   0  0  0  0  0  0  0  0  0  0  0  0
    2.2410   -2.1080   -0.2675 O   0  0  0  0  0  0  0  0  0  0  0  0
    2.5171   -2.9829   -2.3306 O   0  0  0  0  0  0  0  0  0  0  0  0
    7.2147   -1.2557   -3.6173 C   0  0  0  0  0  0  0  0  0  0  0  0
    7.0463   -2.2688   -4.3471 O   0  0  0  0  0  0  0  0  0  0  0  0
    8.3717   -0.5003   -3.7710 O   0  0  0  0  0  0  0  0  0  0  0  0
   -7.8115    2.9979   -2.3808 H   0  0  0  0  0  0  0  0  0  0  0  0
   -6.9122    4.0552   -1.2278 H   0  0  0  0  0  0  0  0  0  0  0  0
   -7.8187    2.6090   -0.6188 H   0  0  0  0  0  0  0  0  0  0  0  0
   -5.3689    2.5452   -2.5032 H   0  0  0  0  0  0  0  0  0  0  0  0
   -6.2710    1.1060   -1.8969 H   0  0  0  0  0  0  0  0  0  0  0  0
   -4.7648    3.1642   -0.1557 H   0  0  0  0  0  0  0  0  0  0  0  0
   -5.6743    1.7144    0.4553 H   0  0  0  0  0  0  0  0  0  0  0  0
   -3.7802    2.2772    1.9150 H   0  0  0  0  0  0  0  0  0  0  0  0
   -1.9902    1.8189    3.5053 H   0  0  0  0  0  0  0  0  0  0  0  0
   -0.0083   -0.6593    0.6129 H   0  0  0  0  0  0  0  0  0  0  0  0
   -1.0094   -1.2482   -2.9739 H   0  0  0  0  0  0  0  0  0  0  0  0
    0.1269   -0.8740   -1.6536 H   0  0  0  0  0  0  0  0  0  0  0  0
   -1.0314   -2.6378   -0.2100 H   0  0  0  0  0  0  0  0  0  0  0  0
   -0.3512   -3.3100   -1.7285 H   0  0  0  0  0  0  0  0  0  0  0  0
   -3.3074   -2.5477   -1.2538 H   0  0  0  0  0  0  0  0  0  0  0  0
   -2.6218   -3.1999   -2.7995 H   0  0  0  0  0  0  0  0  0  0  0  0
   -2.6164   -4.2119   -1.3060 H   0  0  0  0  0  0  0  0  0  0  0  0
    0.2329    1.0426    3.9635 H   0  0  0  0  0  0  0  0  0  0  0  0
    0.7470   -1.2900    4.6013 H   0  0  0  0  0  0  0  0  0  0  0  0
   -0.0370   -1.9047    3.0938 H   0  0  0  0  0  0  0  0  0  0  0  0
   -1.0239   -1.0653    4.3561 H   0  0  0  0  0  0  0  0  0  0  0  0
    2.0917   -0.6290    2.4611 H   0  0  0  0  0  0  0  0  0  0  0  0
    3.5052    2.2914    0.5445 H   0  0  0  0  0  0  0  0  0  0  0  0
    4.2237    1.2021    1.8068 H   0  0  0  0  0  0  0  0  0  0  0  0
    5.6204    1.5041   -0.2594 H   0  0  0  0  0  0  0  0  0  0  0  0
    7.2857    0.8588   -1.9038 H   0  0  0  0  0  0  0  0  0  0  0  0
    4.8768   -2.5173   -3.0585 H   0  0  0  0  0  0  0  0  0  0  0  0
  1  2  1  0
  2  3  1  0
  3  4  1  0
  4  5  1  0
  5  6  2  0
  6  7  1  0
  7  8  2  0
  8  9  1  0
  9 10  2  0
 10 11  1  0
 11 12  1  0
 12 13  1  0
 13 14  1  0
  8 15  1  0
 15 16  1  0
 15 17  1  0
 17 18  1  0
 18 19  2  0
 18 20  1  0
 20 21  1  0
 21 22  1  0
 22 23  2  0
 23 24  1  0
 24 25  2  0
 25 26  1  0
 26 27  2  0
 27 28  1  0
 28 29  2  0
 28 30  1  0
 25 31  1  0
 31 32  2  0
 31 33  1  0
 10  5  1  0
 27 22  1  0
  1 34  1  0
  1 35  1  0
  1 36  1  0
  2 37  1  0
  2 38  1  0
  3 39  1  0
  3 40  1  0
  6 41  1  0
  7 42  1  0
  9 43  1  0
 12 44  1  0
 12 45  1  0
 13 46  1  0
 13 47  1  0
 14 48  1  0
 14 49  1  0
 14 50  1  0
 15 51  1  1
 16 52  1  0
 16 53  1  0
 16 54  1  0
 17 55  1  0
 20 56  1  0
 20 57  1  0
 23 58  1  0
 24 59  1  0
 26 60  1  0
M  CHG  3  28   1  30  -1  33  -1
M  END
$$$$
