
     RDKit          3D

 60 61  0  0  0  0  0  0  0  0999 V2000
   -0.3167    5.8665   -1.7958 C   0  0  0  0  0  0  0  0  0  0  0  0
   -1.1044    4.6505   -1.3182 C   0  0  0  0  0  0  0  0  0  0  0  0
   -0.3761    3.3517   -1.6550 C   0  0  0  0  0  0  0  0  0  0  0  0
   -1.1196    2.2491   -1.1434 O   0  0  0  0  0  0  0  0  0  0  0  0
   -0.7466    0.9034   -1.2831 C   0  0  0  0  0  0  0  0  0  0  0  0
    0.4323    0.5208   -1.9478 C   0  0  0  0  0  0  0  0  0  0  0  0
    0.7686   -0.8272   -2.0695 C   0  0  0  0  0  0  0  0  0  0  0  0
   -0.0750   -1.8219   -1.5500 C   0  0  0  0  0  0  0  0  0  0  0  0
   -1.2444   -1.4397   -0.8739 C   0  0  0  0  0  0  0  0  0  0  0  0
   -1.5818   -0.0789   -0.7310 C   0  0  0  0  0  0  0  0  0  0  0  0
   -2.7383    0.3433   -0.0522 O   0  0  0  0  0  0  0  0  0  0  0  0
   -3.6197   -0.4965    0.6935 C   0  0  0  0  0  0  0  0  0  0  0  0
   -2.9821   -0.8969    2.0273 C   0  0  0  0  0  0  0  0  0  0  0  0
   -3.9059   -1.8070    2.8298 C   0  0  0  0  0  0  0  0  0  0  0  0
    0.2987   -3.2865   -1.6551 C   0  0  1  0  0  0  0  0  0  0  0  0
    0.4342   -3.7284   -3.1159 C   0  0  0  0  0  0  0  0  0  0  0  0
    1.5475   -3.5238   -0.9301 N   0  0  0  0  0  0  0  0  0  0  0  0
    1.5640   -3.6496    0.4976 C   0  0  0  0  0  0  0  0  0  0  0  0
    0.5517   -4.0836    1.1111 O   0  0  0  0  0  0  0  0  0  0  0  0
    2.7806   -3.2421    1.2692 C   0  0  0  0  0  0  0  0  0  0  0  0
    3.1761   -1.9191    0.9048 O   0  0  0  0  0  0  0  0  0  0  0  0
    2.4430   -0.7450    1.1568 C   0  0  0  0  0  0  0  0  0  0  0  0
    1.2917   -0.7562    1.9675 C   0  0  0  0  0  0  0  0  0  0  0  0
    0.5949    0.4218    2.2325 C   0  0  0  0  0  0  0  0  0  0  0  0
    1.0321    1.6418    1.7030 C   0  0  0  0  0  0  0  0  0  0  0  0
    2.1771    1.6608    0.8906 C   0  0  0  0  0  0  0  0  0  0  0  0
    2.8822    0.4772    0.5984 C   0  0  0  0  0  0  0  0  0  0  0  0
    4.0301    0.5287   -0.2736 N   0  0  0  0  0  0  0  0  0  0  0  0
    4.5823    1.6196   -0.5270 O   0  0  0  0  0  0  0  0  0  0  0  0
    4.4863   -0.6013   -0.9126 O   0  0  0  0  0  0  0  0  0  0  0  0
    0.2925    2.8888    1.9974 C   0  0  0  0  0  0  0  0  0  0  0  0
    0.7454    4.0049    1.6283 O   0  0  0  0  0  0  0  0  0  0  0  0
   -0.9126    2.8461    2.6891 O   0  0  0  0  0  0  0  0  0  0  0  0
   -0.8735    6.7929   -1.5417 H   0  0  0  0  0  0  0  0  0  0  0  0
    0.6765    5.9016   -1.2992 H   0  0  0  0  0  0  0  0  0  0  0  0
   -0.1758    5.8268   -2.8970 H   0  0  0  0  0  0  0  0  0  0  0  0
   -1.2502    4.7201   -0.2187 H   0  0  0  0  0  0  0  0  0  0  0  0
   -2.1043    4.6488   -1.8038 H   0  0  0  0  0  0  0  0  0  0  0  0
   -0.2809    3.2564   -2.7588 H   0  0  0  0  0  0  0  0  0  0  0  0
    0.6359    3.3617   -1.1956 H   0  0  0  0  0  0  0  0  0  0  0  0
    1.1035    1.2591   -2.3642 H   0  0  0  0  0  0  0  0  0  0  0  0
    1.6938   -1.0931   -2.5644 H   0  0  0  0  0  0  0  0  0  0  0  0
   -1.8807   -2.2077   -0.4586 H   0  0  0  0  0  0  0  0  0  0  0  0
   -3.9105   -1.3869    0.0963 H   0  0  0  0  0  0  0  0  0  0  0  0
   -4.5476    0.0780    0.9003 H   0  0  0  0  0  0  0  0  0  0  0  0
   -2.7704    0.0191    2.6199 H   0  0  0  0  0  0  0  0  0  0  0  0
   -2.0220   -1.4263    1.8513 H   0  0  0  0  0  0  0  0  0  0  0  0
   -4.8651   -1.2900    3.0461 H   0  0  0  0  0  0  0  0  0  0  0  0
   -3.4206   -2.0730    3.7924 H   0  0  0  0  0  0  0  0  0  0  0  0
   -4.1111   -2.7414    2.2651 H   0  0  0  0  0  0  0  0  0  0  0  0
   -0.5033   -3.9179   -1.2115 H   0  0  0  0  0  0  0  0  0  0  0  0
    1.2621   -3.1918   -3.6252 H   0  0  0  0  0  0  0  0  0  0  0  0
    0.6448   -4.8181   -3.1589 H   0  0  0  0  0  0  0  0  0  0  0  0
   -0.5130   -3.5322   -3.6625 H   0  0  0  0  0  0  0  0  0  0  0  0
    2.4518   -3.3182   -1.4135 H   0  0  0  0  0  0  0  0  0  0  0  0
    3.6061   -3.9403    1.0197 H   0  0  0  0  0  0  0  0  0  0  0  0
    2.6054   -3.3038    2.3650 H   0  0  0  0  0  0  0  0  0  0  0  0
    0.9294   -1.6709    2.4135 H   0  0  0  0  0  0  0  0  0  0  0  0
   -0.2798    0.3777    2.8681 H   0  0  0  0  0  0  0  0  0  0  0  0
    2.5110    2.5983    0.4641 H   0  0  0  0  0  0  0  0  0  0  0  0
  1  2  1  0
  2  3  1  0
  3  4  1  0
  4  5  1  0
  5  6  2  0
  6  7  1  0
  7  8  2  0
  8  9  1  0
  9 10  2  0
 10 11  1  0
 11 12  1  0
 12 13  1  0
 13 14  1  0
  8 15  1  0
 15 16  1  0
 15 17  1  0
 17 18  1  0
 18 19  2  0
 18 20  1  0
 20 21  1  0
 21 22  1  0
 22 23  2  0
 23 24  1  0
 24 25  2  0
 25 26  1  0
 26 27  2  0
 27 28  1  0
 28 29  2  0
 28 30  1  0
 25 31  1  0
 31 32  2  0
 31 33  1  0
 10  5  1  0
 27 22  1  0
  1 34  1  0
  1 35  1  0
  1 36  1  0
  2 37  1  0
  2 38  1  0
  3 39  1  0
  3 40  1  0
  6 41  1  0
  7 42  1  0
  9 43  1  0
 12 44  1  0
 12 45  1  0
 13 46  1  0
 13 47  1  0
 14 48  1  0
 14 49  1  0
 14 50  1  0
 15 51  1  1
 16 52  1  0
 16 53  1  0
 16 54  1  0
 17 55  1  0
 20 56  1  0
 20 57  1  0
 23 58  1  0
 24 59  1  0
 26 60  1  0
M  CHG  3  28   1  30  -1  33  -1
M  END
$$$$
