
     RDKit          3D

 60 61  0  0  0  0  0  0  0  0999 V2000
    6.8616    3.4586   -1.9822 C   0  0  0  0  0  0  0  0  0  0  0  0
    6.0373    2.6323   -0.9999 C   0  0  0  0  0  0  0  0  0  0  0  0
    5.6260    1.2906   -1.6138 C   0  0  0  0  0  0  0  0  0  0  0  0
    4.8689    0.5213   -0.6791 O   0  0  0  0  0  0  0  0  0  0  0  0
    3.5263    0.7463   -0.3273 C   0  0  0  0  0  0  0  0  0  0  0  0
    2.7307    1.7149   -0.9681 C   0  0  0  0  0  0  0  0  0  0  0  0
    1.4012    1.9010   -0.5891 C   0  0  0  0  0  0  0  0  0  0  0  0
    0.8371    1.1236    0.4333 C   0  0  0  0  0  0  0  0  0  0  0  0
    1.6299    0.1621    1.0783 C   0  0  0  0  0  0  0  0  0  0  0  0
    2.9713   -0.0388    0.6956 C   0  0  0  0  0  0  0  0  0  0  0  0
    3.7929   -1.0010    1.3090 O   0  0  0  0  0  0  0  0  0  0  0  0
    3.3704   -1.9675    2.2715 C   0  0  0  0  0  0  0  0  0  0  0  0
    2.5730   -3.0883    1.5969 C   0  0  0  0  0  0  0  0  0  0  0  0
    2.1238   -4.1338    2.6127 C   0  0  0  0  0  0  0  0  0  0  0  0
   -0.6032    1.3293    0.8529 C   0  0  1  0  0  0  0  0  0  0  0  0
   -0.7517    2.6492    1.6164 C   0  0  0  0  0  0  0  0  0  0  0  0
   -1.4842    1.3078   -0.3192 N   0  0  0  0  0  0  0  0  0  0  0  0
   -1.7529    0.0985   -1.0438 C   0  0  0  0  0  0  0  0  0  0  0  0
   -1.1889   -0.9800   -0.7134 O   0  0  0  0  0  0  0  0  0  0  0  0
   -2.6938    0.1061   -2.2110 C   0  0  0  0  0  0  0  0  0  0  0  0
   -3.6879   -0.9074   -2.0600 O   0  0  0  0  0  0  0  0  0  0  0  0
   -4.7289   -0.9020   -1.1141 C   0  0  0  0  0  0  0  0  0  0  0  0
   -4.9520    0.2055   -0.2731 C   0  0  0  0  0  0  0  0  0  0  0  0
   -6.0009    0.2041    0.6455 C   0  0  0  0  0  0  0  0  0  0  0  0
   -6.8573   -0.9007    0.7464 C   0  0  0  0  0  0  0  0  0  0  0  0
   -6.6414   -2.0080   -0.0886 C   0  0  0  0  0  0  0  0  0  0  0  0
   -5.5814   -2.0265   -1.0166 C   0  0  0  0  0  0  0  0  0  0  0  0
   -5.3842   -3.1892   -1.8489 N   0  0  0  0  0  0  0  0  0  0  0  0
   -6.2832   -4.0493   -1.9555 O   0  0  0  0  0  0  0  0  0  0  0  0
   -4.1870   -3.4111   -2.4897 O   0  0  0  0  0  0  0  0  0  0  0  0
   -7.9727   -0.9027    1.7196 C   0  0  0  0  0  0  0  0  0  0  0  0
   -8.1682    0.0886    2.4723 O   0  0  0  0  0  0  0  0  0  0  0  0
   -8.8215   -1.9994    1.8172 O   0  0  0  0  0  0  0  0  0  0  0  0
    7.1487    4.4211   -1.5089 H   0  0  0  0  0  0  0  0  0  0  0  0
    6.2681    3.6749   -2.8960 H   0  0  0  0  0  0  0  0  0  0  0  0
    7.7865    2.9123   -2.2656 H   0  0  0  0  0  0  0  0  0  0  0  0
    6.6401    2.4472   -0.0846 H   0  0  0  0  0  0  0  0  0  0  0  0
    5.1371    3.2132   -0.7090 H   0  0  0  0  0  0  0  0  0  0  0  0
    5.0567    1.4316   -2.5573 H   0  0  0  0  0  0  0  0  0  0  0  0
    6.5436    0.7172   -1.8651 H   0  0  0  0  0  0  0  0  0  0  0  0
    3.1250    2.3302   -1.7637 H   0  0  0  0  0  0  0  0  0  0  0  0
    0.8085    2.6525   -1.0960 H   0  0  0  0  0  0  0  0  0  0  0  0
    1.1930   -0.4237    1.8740 H   0  0  0  0  0  0  0  0  0  0  0  0
    4.2784   -2.4064    2.7370 H   0  0  0  0  0  0  0  0  0  0  0  0
    2.7863   -1.4828    3.0828 H   0  0  0  0  0  0  0  0  0  0  0  0
    1.6769   -2.6719    1.0908 H   0  0  0  0  0  0  0  0  0  0  0  0
    3.2081   -3.5778    0.8272 H   0  0  0  0  0  0  0  0  0  0  0  0
    1.5544   -4.9343    2.0952 H   0  0  0  0  0  0  0  0  0  0  0  0
    1.4670   -3.6689    3.3786 H   0  0  0  0  0  0  0  0  0  0  0  0
    3.0046   -4.5905    3.1124 H   0  0  0  0  0  0  0  0  0  0  0  0
   -0.9234    0.5169    1.5434 H   0  0  0  0  0  0  0  0  0  0  0  0
   -1.8039    2.7748    1.9496 H   0  0  0  0  0  0  0  0  0  0  0  0
   -0.4769    3.5123    0.9729 H   0  0  0  0  0  0  0  0  0  0  0  0
   -0.0975    2.6463    2.5145 H   0  0  0  0  0  0  0  0  0  0  0  0
   -1.9449    2.1923   -0.6334 H   0  0  0  0  0  0  0  0  0  0  0  0
   -2.1099   -0.1075   -3.1302 H   0  0  0  0  0  0  0  0  0  0  0  0
   -3.1737    1.0985   -2.3474 H   0  0  0  0  0  0  0  0  0  0  0  0
   -4.3247    1.0832   -0.3242 H   0  0  0  0  0  0  0  0  0  0  0  0
   -6.1429    1.0735    1.2755 H   0  0  0  0  0  0  0  0  0  0  0  0
   -7.2942   -2.8681   -0.0100 H   0  0  0  0  0  0  0  0  0  0  0  0
  1  2  1  0
  2  3  1  0
  3  4  1  0
  4  5  1  0
  5  6  2  0
  6  7  1  0
  7  8  2  0
  8  9  1  0
  9 10  2  0
 10 11  1  0
 11 12  1  0
 12 13  1  0
 13 14  1  0
  8 15  1  0
 15 16  1  0
 15 17  1  0
 17 18  1  0
 18 19  2  0
 18 20  1  0
 20 21  1  0
 21 22  1  0
 22 23  2  0
 23 24  1  0
 24 25  2  0
 25 26  1  0
 26 27  2  0
 27 28  1  0
 28 29  2  0
 28 30  1  0
 25 31  1  0
 31 32  2  0
 31 33  1  0
 10  5  1  0
 27 22  1  0
  1 34  1  0
  1 35  1  0
  1 36  1  0
  2 37  1  0
  2 38  1  0
  3 39  1  0
  3 40  1  0
  6 41  1  0
  7 42  1  0
  9 43  1  0
 12 44  1  0
 12 45  1  0
 13 46  1  0
 13 47  1  0
 14 48  1  0
 14 49  1  0
 14 50  1  0
 15 51  1  1
 16 52  1  0
 16 53  1  0
 16 54  1  0
 17 55  1  0
 20 56  1  0
 20 57  1  0
 23 58  1  0
 24 59  1  0
 26 60  1  0
M  CHG  3  28   1  30  -1  33  -1
M  END
$$$$
