
     RDKit          3D

 60 61  0  0  0  0  0  0  0  0999 V2000
   -5.5950    4.5318   -2.3245 C   0  0  0  0  0  0  0  0  0  0  0  0
   -4.5620    3.4575   -1.9990 C   0  0  0  0  0  0  0  0  0  0  0  0
   -5.2234    2.2232   -1.3784 C   0  0  0  0  0  0  0  0  0  0  0  0
   -4.2483    1.2194   -1.0955 O   0  0  0  0  0  0  0  0  0  0  0  0
   -3.3318    1.2425   -0.0296 C   0  0  0  0  0  0  0  0  0  0  0  0
   -3.3641    2.2312    0.9719 C   0  0  0  0  0  0  0  0  0  0  0  0
   -2.4257    2.2229    2.0042 C   0  0  0  0  0  0  0  0  0  0  0  0
   -1.4434    1.2253    2.0649 C   0  0  0  0  0  0  0  0  0  0  0  0
   -1.4347    0.2137    1.0887 C   0  0  0  0  0  0  0  0  0  0  0  0
   -2.3567    0.2345    0.0248 C   0  0  0  0  0  0  0  0  0  0  0  0
   -2.3414   -0.7255   -1.0015 O   0  0  0  0  0  0  0  0  0  0  0  0
   -1.2946   -1.6639   -1.2535 C   0  0  0  0  0  0  0  0  0  0  0  0
   -0.0458   -0.9534   -1.7888 C   0  0  0  0  0  0  0  0  0  0  0  0
    0.9804   -1.9544   -2.3106 C   0  0  0  0  0  0  0  0  0  0  0  0
   -0.4414    1.2247    3.2028 C   0  0  1  0  0  0  0  0  0  0  0  0
   -0.9426    0.3249    4.3360 C   0  0  0  0  0  0  0  0  0  0  0  0
    0.8803    0.7830    2.7413 N   0  0  0  0  0  0  0  0  0  0  0  0
    1.6047    1.4794    1.7158 C   0  0  0  0  0  0  0  0  0  0  0  0
    1.2357    2.6266    1.3448 O   0  0  0  0  0  0  0  0  0  0  0  0
    2.8196    0.8622    1.0983 C   0  0  0  0  0  0  0  0  0  0  0  0
    2.6214   -0.5426    0.9588 O   0  0  0  0  0  0  0  0  0  0  0  0
    3.5611   -1.4424    0.4323 C   0  0  0  0  0  0  0  0  0  0  0  0
    4.7681   -0.9883   -0.1313 C   0  0  0  0  0  0  0  0  0  0  0  0
    5.6827   -1.8883   -0.6767 C   0  0  0  0  0  0  0  0  0  0  0  0
    5.4170   -3.2635   -0.6716 C   0  0  0  0  0  0  0  0  0  0  0  0
    4.2182   -3.7245   -0.1028 C   0  0  0  0  0  0  0  0  0  0  0  0
    3.2855   -2.8311    0.4574 C   0  0  0  0  0  0  0  0  0  0  0  0
    2.0692   -3.3514    1.0379 N   0  0  0  0  0  0  0  0  0  0  0  0
    1.3038   -2.6229    1.7022 O   0  0  0  0  0  0  0  0  0  0  0  0
    1.7396   -4.6791    0.8864 O   0  0  0  0  0  0  0  0  0  0  0  0
    6.3909   -4.2128   -1.2563 C   0  0  0  0  0  0  0  0  0  0  0  0
    6.1591   -5.4512   -1.2557 O   0  0  0  0  0  0  0  0  0  0  0  0
    7.5767   -3.7504   -1.8155 O   0  0  0  0  0  0  0  0  0  0  0  0
   -6.1153    4.8585   -1.3989 H   0  0  0  0  0  0  0  0  0  0  0  0
   -5.0879    5.4104   -2.7759 H   0  0  0  0  0  0  0  0  0  0  0  0
   -6.3424    4.1423   -3.0482 H   0  0  0  0  0  0  0  0  0  0  0  0
   -4.0376    3.1617   -2.9333 H   0  0  0  0  0  0  0  0  0  0  0  0
   -3.8105    3.8819   -1.3006 H   0  0  0  0  0  0  0  0  0  0  0  0
   -5.9468    1.8013   -2.1083 H   0  0  0  0  0  0  0  0  0  0  0  0
   -5.7943    2.4843   -0.4618 H   0  0  0  0  0  0  0  0  0  0  0  0
   -4.1070    3.0156    0.9643 H   0  0  0  0  0  0  0  0  0  0  0  0
   -2.4674    2.9969    2.7607 H   0  0  0  0  0  0  0  0  0  0  0  0
   -0.7026   -0.5773    1.1605 H   0  0  0  0  0  0  0  0  0  0  0  0
   -1.6610   -2.3790   -2.0206 H   0  0  0  0  0  0  0  0  0  0  0  0
   -1.0620   -2.2500   -0.3389 H   0  0  0  0  0  0  0  0  0  0  0  0
    0.4197   -0.3463   -0.9842 H   0  0  0  0  0  0  0  0  0  0  0  0
   -0.3343   -0.2701   -2.6166 H   0  0  0  0  0  0  0  0  0  0  0  0
    1.9106   -1.4203   -2.5983 H   0  0  0  0  0  0  0  0  0  0  0  0
    1.2251   -2.7017   -1.5289 H   0  0  0  0  0  0  0  0  0  0  0  0
    0.5817   -2.4826   -3.2026 H   0  0  0  0  0  0  0  0  0  0  0  0
   -0.3365    2.2549    3.6108 H   0  0  0  0  0  0  0  0  0  0  0  0
   -0.2234    0.3464    5.1822 H   0  0  0  0  0  0  0  0  0  0  0  0
   -1.0504   -0.7236    3.9833 H   0  0  0  0  0  0  0  0  0  0  0  0
   -1.9271    0.6849    4.7044 H   0  0  0  0  0  0  0  0  0  0  0  0
    1.2965   -0.0910    3.1368 H   0  0  0  0  0  0  0  0  0  0  0  0
    3.6946    1.0561    1.7545 H   0  0  0  0  0  0  0  0  0  0  0  0
    2.9948    1.3145    0.0980 H   0  0  0  0  0  0  0  0  0  0  0  0
    5.0086    0.0653   -0.1604 H   0  0  0  0  0  0  0  0  0  0  0  0
    6.5993   -1.5033   -1.1059 H   0  0  0  0  0  0  0  0  0  0  0  0
    4.0125   -4.7871   -0.0896 H   0  0  0  0  0  0  0  0  0  0  0  0
  1  2  1  0
  2  3  1  0
  3  4  1  0
  4  5  1  0
  5  6  2  0
  6  7  1  0
  7  8  2  0
  8  9  1  0
  9 10  2  0
 10 11  1  0
 11 12  1  0
 12 13  1  0
 13 14  1  0
  8 15  1  0
 15 16  1  0
 15 17  1  0
 17 18  1  0
 18 19  2  0
 18 20  1  0
 20 21  1  0
 21 22  1  0
 22 23  2  0
 23 24  1  0
 24 25  2  0
 25 26  1  0
 26 27  2  0
 27 28  1  0
 28 29  2  0
 28 30  1  0
 25 31  1  0
 31 32  2  0
 31 33  1  0
 10  5  1  0
 27 22  1  0
  1 34  1  0
  1 35  1  0
  1 36  1  0
  2 37  1  0
  2 38  1  0
  3 39  1  0
  3 40  1  0
  6 41  1  0
  7 42  1  0
  9 43  1  0
 12 44  1  0
 12 45  1  0
 13 46  1  0
 13 47  1  0
 14 48  1  0
 14 49  1  0
 14 50  1  0
 15 51  1  1
 16 52  1  0
 16 53  1  0
 16 54  1  0
 17 55  1  0
 20 56  1  0
 20 57  1  0
 23 58  1  0
 24 59  1  0
 26 60  1  0
M  CHG  3  28   1  30  -1  33  -1
M  END
$$$$
