
     RDKit          3D

 60 61  0  0  0  0  0  0  0  0999 V2000
   -7.0189    2.4938   -0.9329 C   0  0  0  0  0  0  0  0  0  0  0  0
   -5.9300    3.3343   -0.2689 C   0  0  0  0  0  0  0  0  0  0  0  0
   -4.5322    2.9095   -0.7177 C   0  0  0  0  0  0  0  0  0  0  0  0
   -4.2763    1.5693   -0.3042 O   0  0  0  0  0  0  0  0  0  0  0  0
   -3.0898    0.8664   -0.5634 C   0  0  0  0  0  0  0  0  0  0  0  0
   -2.0063    1.4520   -1.2431 C   0  0  0  0  0  0  0  0  0  0  0  0
   -0.8434    0.7184   -1.4818 C   0  0  0  0  0  0  0  0  0  0  0  0
   -0.7365   -0.6101   -1.0407 C   0  0  0  0  0  0  0  0  0  0  0  0
   -1.8216   -1.1984   -0.3718 C   0  0  0  0  0  0  0  0  0  0  0  0
   -2.9980   -0.4634   -0.1276 C   0  0  0  0  0  0  0  0  0  0  0  0
   -4.0995   -1.0181    0.5419 O   0  0  0  0  0  0  0  0  0  0  0  0
   -4.1726   -2.3626    1.0106 C   0  0  0  0  0  0  0  0  0  0  0  0
   -5.5260   -2.6082    1.6766 C   0  0  0  0  0  0  0  0  0  0  0  0
   -6.6800   -2.4642    0.6866 C   0  0  0  0  0  0  0  0  0  0  0  0
    0.5179   -1.4141   -1.3109 C   0  0  1  0  0  0  0  0  0  0  0  0
    0.5828   -1.8124   -2.7887 C   0  0  0  0  0  0  0  0  0  0  0  0
    1.7093   -0.6482   -0.9298 N   0  0  0  0  0  0  0  0  0  0  0  0
    2.0322   -0.3748    0.4408 C   0  0  0  0  0  0  0  0  0  0  0  0
    1.3026   -0.8177    1.3691 O   0  0  0  0  0  0  0  0  0  0  0  0
    3.2521    0.4205    0.7745 C   0  0  0  0  0  0  0  0  0  0  0  0
    4.4094   -0.3323    0.4229 O   0  0  0  0  0  0  0  0  0  0  0  0
    5.7337    0.1118    0.5701 C   0  0  0  0  0  0  0  0  0  0  0  0
    6.0227    1.3739    1.1232 C   0  0  0  0  0  0  0  0  0  0  0  0
    7.3415    1.7981    1.2808 C   0  0  0  0  0  0  0  0  0  0  0  0
    8.4053    0.9743    0.8912 C   0  0  0  0  0  0  0  0  0  0  0  0
    8.1246   -0.2850    0.3355 C   0  0  0  0  0  0  0  0  0  0  0  0
    6.7991   -0.7278    0.1640 C   0  0  0  0  0  0  0  0  0  0  0  0
    6.5577   -2.0270   -0.4185 N   0  0  0  0  0  0  0  0  0  0  0  0
    5.4174   -2.3656   -0.7967 O   0  0  0  0  0  0  0  0  0  0  0  0
    7.5990   -2.9063   -0.6109 O   0  0  0  0  0  0  0  0  0  0  0  0
    9.8030    1.4306    1.0631 C   0  0  0  0  0  0  0  0  0  0  0  0
   10.7652    0.6955    0.7153 O   0  0  0  0  0  0  0  0  0  0  0  0
   10.0741    2.6789    1.6120 O   0  0  0  0  0  0  0  0  0  0  0  0
   -8.0165    2.8513   -0.6017 H   0  0  0  0  0  0  0  0  0  0  0  0
   -6.9144    1.4254   -0.6472 H   0  0  0  0  0  0  0  0  0  0  0  0
   -6.9578    2.5861   -2.0382 H   0  0  0  0  0  0  0  0  0  0  0  0
   -6.0105    3.2356    0.8354 H   0  0  0  0  0  0  0  0  0  0  0  0
   -6.0865    4.4023   -0.5338 H   0  0  0  0  0  0  0  0  0  0  0  0
   -3.7857    3.5894   -0.2530 H   0  0  0  0  0  0  0  0  0  0  0  0
   -4.4541    2.9873   -1.8243 H   0  0  0  0  0  0  0  0  0  0  0  0
   -2.0529    2.4742   -1.5925 H   0  0  0  0  0  0  0  0  0  0  0  0
   -0.0231    1.1877   -2.0107 H   0  0  0  0  0  0  0  0  0  0  0  0
   -1.7433   -2.2260   -0.0435 H   0  0  0  0  0  0  0  0  0  0  0  0
   -3.3693   -2.5385    1.7583 H   0  0  0  0  0  0  0  0  0  0  0  0
   -4.0392   -3.0688    0.1618 H   0  0  0  0  0  0  0  0  0  0  0  0
   -5.6644   -1.8871    2.5112 H   0  0  0  0  0  0  0  0  0  0  0  0
   -5.5400   -3.6356    2.1004 H   0  0  0  0  0  0  0  0  0  0  0  0
   -7.6399   -2.6764    1.2028 H   0  0  0  0  0  0  0  0  0  0  0  0
   -6.7185   -1.4306    0.2813 H   0  0  0  0  0  0  0  0  0  0  0  0
   -6.5616   -3.1833   -0.1519 H   0  0  0  0  0  0  0  0  0  0  0  0
    0.5057   -2.3565   -0.7187 H   0  0  0  0  0  0  0  0  0  0  0  0
   -0.3110   -2.4133   -3.0618 H   0  0  0  0  0  0  0  0  0  0  0  0
    1.4888   -2.4280   -2.9734 H   0  0  0  0  0  0  0  0  0  0  0  0
    0.6249   -0.9125   -3.4392 H   0  0  0  0  0  0  0  0  0  0  0  0
    2.3512   -0.2857   -1.6718 H   0  0  0  0  0  0  0  0  0  0  0  0
    3.2689    0.6507    1.8622 H   0  0  0  0  0  0  0  0  0  0  0  0
    3.2300    1.3708    0.1990 H   0  0  0  0  0  0  0  0  0  0  0  0
    5.2312    2.0383    1.4411 H   0  0  0  0  0  0  0  0  0  0  0  0
    7.5266    2.7743    1.7114 H   0  0  0  0  0  0  0  0  0  0  0  0
    8.9432   -0.9221    0.0262 H   0  0  0  0  0  0  0  0  0  0  0  0
  1  2  1  0
  2  3  1  0
  3  4  1  0
  4  5  1  0
  5  6  2  0
  6  7  1  0
  7  8  2  0
  8  9  1  0
  9 10  2  0
 10 11  1  0
 11 12  1  0
 12 13  1  0
 13 14  1  0
  8 15  1  0
 15 16  1  0
 15 17  1  0
 17 18  1  0
 18 19  2  0
 18 20  1  0
 20 21  1  0
 21 22  1  0
 22 23  2  0
 23 24  1  0
 24 25  2  0
 25 26  1  0
 26 27  2  0
 27 28  1  0
 28 29  2  0
 28 30  1  0
 25 31  1  0
 31 32  2  0
 31 33  1  0
 10  5  1  0
 27 22  1  0
  1 34  1  0
  1 35  1  0
  1 36  1  0
  2 37  1  0
  2 38  1  0
  3 39  1  0
  3 40  1  0
  6 41  1  0
  7 42  1  0
  9 43  1  0
 12 44  1  0
 12 45  1  0
 13 46  1  0
 13 47  1  0
 14 48  1  0
 14 49  1  0
 14 50  1  0
 15 51  1  1
 16 52  1  0
 16 53  1  0
 16 54  1  0
 17 55  1  0
 20 56  1  0
 20 57  1  0
 23 58  1  0
 24 59  1  0
 26 60  1  0
M  CHG  3  28   1  30  -1  33  -1
M  END
$$$$
