
     RDKit          3D

 60 61  0  0  0  0  0  0  0  0999 V2000
   -2.4963    2.6076    3.7434 C   0  0  0  0  0  0  0  0  0  0  0  0
   -3.7305    2.1473    2.9708 C   0  0  0  0  0  0  0  0  0  0  0  0
   -3.3912    1.7665    1.5301 C   0  0  0  0  0  0  0  0  0  0  0  0
   -2.5355    0.6264    1.5195 O   0  0  0  0  0  0  0  0  0  0  0  0
   -2.0760   -0.0168    0.3603 C   0  0  0  0  0  0  0  0  0  0  0  0
   -2.3623    0.4685   -0.9280 C   0  0  0  0  0  0  0  0  0  0  0  0
   -1.8972   -0.2070   -2.0573 C   0  0  0  0  0  0  0  0  0  0  0  0
   -1.1699   -1.4018   -1.9243 C   0  0  0  0  0  0  0  0  0  0  0  0
   -0.8527   -1.8632   -0.6363 C   0  0  0  0  0  0  0  0  0  0  0  0
   -1.3014   -1.1756    0.5080 C   0  0  0  0  0  0  0  0  0  0  0  0
   -1.0108   -1.6134    1.8115 O   0  0  0  0  0  0  0  0  0  0  0  0
   -0.0533   -2.6148    2.1592 C   0  0  0  0  0  0  0  0  0  0  0  0
    1.3776   -2.0934    1.9841 C   0  0  0  0  0  0  0  0  0  0  0  0
    1.6680   -0.9280    2.9269 C   0  0  0  0  0  0  0  0  0  0  0  0
   -0.6383   -2.1439   -3.1357 C   0  0  1  0  0  0  0  0  0  0  0  0
   -1.6962   -2.3222   -4.2321 C   0  0  0  0  0  0  0  0  0  0  0  0
    0.5327   -1.4416   -3.6623 N   0  0  0  0  0  0  0  0  0  0  0  0
    1.8390   -1.6353   -3.1006 C   0  0  0  0  0  0  0  0  0  0  0  0
    2.0836   -2.6489   -2.3917 O   0  0  0  0  0  0  0  0  0  0  0  0
    2.9230   -0.6270   -3.3269 C   0  0  0  0  0  0  0  0  0  0  0  0
    3.3811   -0.1122   -2.0768 O   0  0  0  0  0  0  0  0  0  0  0  0
    2.6431    0.7151   -1.2107 C   0  0  0  0  0  0  0  0  0  0  0  0
    1.4258    1.2990   -1.6103 C   0  0  0  0  0  0  0  0  0  0  0  0
    0.7279    2.1493   -0.7539 C   0  0  0  0  0  0  0  0  0  0  0  0
    1.2239    2.4353    0.5237 C   0  0  0  0  0  0  0  0  0  0  0  0
    2.4324    1.8499    0.9329 C   0  0  0  0  0  0  0  0  0  0  0  0
    3.1473    0.9859    0.0831 C   0  0  0  0  0  0  0  0  0  0  0  0
    4.3781    0.3956    0.5492 N   0  0  0  0  0  0  0  0  0  0  0  0
    4.8576   -0.6159   -0.0032 O   0  0  0  0  0  0  0  0  0  0  0  0
    5.0084    0.8951    1.6661 O   0  0  0  0  0  0  0  0  0  0  0  0
    0.4874    3.3526    1.4199 C   0  0  0  0  0  0  0  0  0  0  0  0
    0.8523    3.5119    2.6151 O   0  0  0  0  0  0  0  0  0  0  0  0
   -0.6122    4.0615    0.9506 O   0  0  0  0  0  0  0  0  0  0  0  0
   -1.7265    1.8069    3.7649 H   0  0  0  0  0  0  0  0  0  0  0  0
   -2.0676    3.5181    3.2750 H   0  0  0  0  0  0  0  0  0  0  0  0
   -2.7827    2.8507    4.7881 H   0  0  0  0  0  0  0  0  0  0  0  0
   -4.1832    1.2731    3.4868 H   0  0  0  0  0  0  0  0  0  0  0  0
   -4.4780    2.9697    2.9628 H   0  0  0  0  0  0  0  0  0  0  0  0
   -4.3347    1.5247    0.9943 H   0  0  0  0  0  0  0  0  0  0  0  0
   -2.8965    2.6204    1.0200 H   0  0  0  0  0  0  0  0  0  0  0  0
   -2.9341    1.3755   -1.0677 H   0  0  0  0  0  0  0  0  0  0  0  0
   -2.1075    0.2090   -3.0330 H   0  0  0  0  0  0  0  0  0  0  0  0
   -0.2578   -2.7593   -0.5365 H   0  0  0  0  0  0  0  0  0  0  0  0
   -0.2093   -2.8958    3.2225 H   0  0  0  0  0  0  0  0  0  0  0  0
   -0.2127   -3.5362    1.5614 H   0  0  0  0  0  0  0  0  0  0  0  0
    2.0903   -2.9176    2.2016 H   0  0  0  0  0  0  0  0  0  0  0  0
    1.5425   -1.7665    0.9353 H   0  0  0  0  0  0  0  0  0  0  0  0
    1.5197   -1.2382    3.9830 H   0  0  0  0  0  0  0  0  0  0  0  0
    2.7213   -0.6022    2.8008 H   0  0  0  0  0  0  0  0  0  0  0  0
    0.9998   -0.0701    2.7001 H   0  0  0  0  0  0  0  0  0  0  0  0
   -0.3433   -3.1746   -2.8360 H   0  0  0  0  0  0  0  0  0  0  0  0
   -1.9625   -1.3539   -4.7043 H   0  0  0  0  0  0  0  0  0  0  0  0
   -2.6126   -2.7856   -3.8080 H   0  0  0  0  0  0  0  0  0  0  0  0
   -1.3004   -2.9920   -5.0250 H   0  0  0  0  0  0  0  0  0  0  0  0
    0.3804   -0.6300   -4.3034 H   0  0  0  0  0  0  0  0  0  0  0  0
    3.7721   -1.1325   -3.8321 H   0  0  0  0  0  0  0  0  0  0  0  0
    2.5898    0.1992   -3.9898 H   0  0  0  0  0  0  0  0  0  0  0  0
    1.0131    1.1192   -2.5913 H   0  0  0  0  0  0  0  0  0  0  0  0
   -0.2016    2.5864   -1.0966 H   0  0  0  0  0  0  0  0  0  0  0  0
    2.8168    2.0612    1.9226 H   0  0  0  0  0  0  0  0  0  0  0  0
  1  2  1  0
  2  3  1  0
  3  4  1  0
  4  5  1  0
  5  6  2  0
  6  7  1  0
  7  8  2  0
  8  9  1  0
  9 10  2  0
 10 11  1  0
 11 12  1  0
 12 13  1  0
 13 14  1  0
  8 15  1  0
 15 16  1  0
 15 17  1  0
 17 18  1  0
 18 19  2  0
 18 20  1  0
 20 21  1  0
 21 22  1  0
 22 23  2  0
 23 24  1  0
 24 25  2  0
 25 26  1  0
 26 27  2  0
 27 28  1  0
 28 29  2  0
 28 30  1  0
 25 31  1  0
 31 32  2  0
 31 33  1  0
 10  5  1  0
 27 22  1  0
  1 34  1  0
  1 35  1  0
  1 36  1  0
  2 37  1  0
  2 38  1  0
  3 39  1  0
  3 40  1  0
  6 41  1  0
  7 42  1  0
  9 43  1  0
 12 44  1  0
 12 45  1  0
 13 46  1  0
 13 47  1  0
 14 48  1  0
 14 49  1  0
 14 50  1  0
 15 51  1  1
 16 52  1  0
 16 53  1  0
 16 54  1  0
 17 55  1  0
 20 56  1  0
 20 57  1  0
 23 58  1  0
 24 59  1  0
 26 60  1  0
M  CHG  3  28   1  30  -1  33  -1
M  END
$$$$
