
     RDKit          3D

 60 61  0  0  0  0  0  0  0  0999 V2000
   -5.6717    1.9241   -3.1144 C   0  0  0  0  0  0  0  0  0  0  0  0
   -4.8479    0.9012   -3.8938 C   0  0  0  0  0  0  0  0  0  0  0  0
   -3.4489    0.7306   -3.3030 C   0  0  0  0  0  0  0  0  0  0  0  0
   -3.5394    0.1926   -1.9854 O   0  0  0  0  0  0  0  0  0  0  0  0
   -2.4390   -0.0817   -1.1585 C   0  0  0  0  0  0  0  0  0  0  0  0
   -1.1154    0.1410   -1.5792 C   0  0  0  0  0  0  0  0  0  0  0  0
   -0.0469   -0.1422   -0.7285 C   0  0  0  0  0  0  0  0  0  0  0  0
   -0.2766   -0.6540    0.5593 C   0  0  0  0  0  0  0  0  0  0  0  0
   -1.5981   -0.8800    0.9778 C   0  0  0  0  0  0  0  0  0  0  0  0
   -2.6832   -0.5913    0.1257 C   0  0  0  0  0  0  0  0  0  0  0  0
   -4.0197   -0.8009    0.5089 O   0  0  0  0  0  0  0  0  0  0  0  0
   -4.4640   -1.1967    1.8068 C   0  0  0  0  0  0  0  0  0  0  0  0
   -4.3841   -0.0213    2.7858 C   0  0  0  0  0  0  0  0  0  0  0  0
   -4.8694   -0.4262    4.1742 C   0  0  0  0  0  0  0  0  0  0  0  0
    0.8834   -0.9699    1.4854 C   0  0  1  0  0  0  0  0  0  0  0  0
    1.7578   -2.0820    0.8914 C   0  0  0  0  0  0  0  0  0  0  0  0
    1.6858    0.2325    1.7360 N   0  0  0  0  0  0  0  0  0  0  0  0
    2.7253    0.2662    2.7244 C   0  0  0  0  0  0  0  0  0  0  0  0
    2.7512   -0.5883    3.6509 O   0  0  0  0  0  0  0  0  0  0  0  0
    3.7815    1.3303    2.6718 C   0  0  0  0  0  0  0  0  0  0  0  0
    4.0965    1.6648    1.3189 O   0  0  0  0  0  0  0  0  0  0  0  0
    4.6265    0.7812    0.3614 C   0  0  0  0  0  0  0  0  0  0  0  0
    5.1395   -0.4765    0.7318 C   0  0  0  0  0  0  0  0  0  0  0  0
    5.6155   -1.3645   -0.2316 C   0  0  0  0  0  0  0  0  0  0  0  0
    5.5986   -1.0177   -1.5885 C   0  0  0  0  0  0  0  0  0  0  0  0
    5.1036    0.2419   -1.9640 C   0  0  0  0  0  0  0  0  0  0  0  0
    4.6230    1.1530   -1.0028 C   0  0  0  0  0  0  0  0  0  0  0  0
    4.1154    2.4358   -1.4276 N   0  0  0  0  0  0  0  0  0  0  0  0
    3.8655    2.6486   -2.6324 O   0  0  0  0  0  0  0  0  0  0  0  0
    3.9464    3.4667   -0.5324 O   0  0  0  0  0  0  0  0  0  0  0  0
    6.0994   -1.9681   -2.6069 C   0  0  0  0  0  0  0  0  0  0  0  0
    6.0882   -1.6631   -3.8292 O   0  0  0  0  0  0  0  0  0  0  0  0
    6.5890   -3.2130   -2.2284 O   0  0  0  0  0  0  0  0  0  0  0  0
   -5.1646    2.9125   -3.1188 H   0  0  0  0  0  0  0  0  0  0  0  0
   -5.8151    1.5897   -2.0649 H   0  0  0  0  0  0  0  0  0  0  0  0
   -6.6694    2.0353   -3.5887 H   0  0  0  0  0  0  0  0  0  0  0  0
   -5.3745   -0.0777   -3.8885 H   0  0  0  0  0  0  0  0  0  0  0  0
   -4.7568    1.2400   -4.9484 H   0  0  0  0  0  0  0  0  0  0  0  0
   -2.8715    0.0336   -3.9482 H   0  0  0  0  0  0  0  0  0  0  0  0
   -2.9304    1.7141   -3.2775 H   0  0  0  0  0  0  0  0  0  0  0  0
   -0.9006    0.5337   -2.5634 H   0  0  0  0  0  0  0  0  0  0  0  0
    0.9627    0.0410   -1.0751 H   0  0  0  0  0  0  0  0  0  0  0  0
   -1.7709   -1.2821    1.9656 H   0  0  0  0  0  0  0  0  0  0  0  0
   -5.5239   -1.5185    1.7220 H   0  0  0  0  0  0  0  0  0  0  0  0
   -3.8828   -2.0708    2.1703 H   0  0  0  0  0  0  0  0  0  0  0  0
   -5.0143    0.8131    2.4089 H   0  0  0  0  0  0  0  0  0  0  0  0
   -3.3385    0.3435    2.8635 H   0  0  0  0  0  0  0  0  0  0  0  0
   -4.2368   -1.2445    4.5795 H   0  0  0  0  0  0  0  0  0  0  0  0
   -4.8049    0.4452    4.8593 H   0  0  0  0  0  0  0  0  0  0  0  0
   -5.9261   -0.7661    4.1301 H   0  0  0  0  0  0  0  0  0  0  0  0
    0.4872   -1.3347    2.4591 H   0  0  0  0  0  0  0  0  0  0  0  0
    2.2707   -1.7329   -0.0300 H   0  0  0  0  0  0  0  0  0  0  0  0
    1.1352   -2.9689    0.6462 H   0  0  0  0  0  0  0  0  0  0  0  0
    2.5312   -2.3958    1.6234 H   0  0  0  0  0  0  0  0  0  0  0  0
    1.5519    1.0799    1.1384 H   0  0  0  0  0  0  0  0  0  0  0  0
    3.3944    2.2370    3.1806 H   0  0  0  0  0  0  0  0  0  0  0  0
    4.6995    1.0050    3.2068 H   0  0  0  0  0  0  0  0  0  0  0  0
    5.1691   -0.7844    1.7674 H   0  0  0  0  0  0  0  0  0  0  0  0
    5.9948   -2.3266    0.0892 H   0  0  0  0  0  0  0  0  0  0  0  0
    5.0971    0.5197   -3.0105 H   0  0  0  0  0  0  0  0  0  0  0  0
  1  2  1  0
  2  3  1  0
  3  4  1  0
  4  5  1  0
  5  6  2  0
  6  7  1  0
  7  8  2  0
  8  9  1  0
  9 10  2  0
 10 11  1  0
 11 12  1  0
 12 13  1  0
 13 14  1  0
  8 15  1  0
 15 16  1  0
 15 17  1  0
 17 18  1  0
 18 19  2  0
 18 20  1  0
 20 21  1  0
 21 22  1  0
 22 23  2  0
 23 24  1  0
 24 25  2  0
 25 26  1  0
 26 27  2  0
 27 28  1  0
 28 29  2  0
 28 30  1  0
 25 31  1  0
 31 32  2  0
 31 33  1  0
 10  5  1  0
 27 22  1  0
  1 34  1  0
  1 35  1  0
  1 36  1  0
  2 37  1  0
  2 38  1  0
  3 39  1  0
  3 40  1  0
  6 41  1  0
  7 42  1  0
  9 43  1  0
 12 44  1  0
 12 45  1  0
 13 46  1  0
 13 47  1  0
 14 48  1  0
 14 49  1  0
 14 50  1  0
 15 51  1  1
 16 52  1  0
 16 53  1  0
 16 54  1  0
 17 55  1  0
 20 56  1  0
 20 57  1  0
 23 58  1  0
 24 59  1  0
 26 60  1  0
M  CHG  3  28   1  30  -1  33  -1
M  END
$$$$
