
     RDKit          3D

 60 61  0  0  0  0  0  0  0  0999 V2000
   -1.8473   -4.4052    3.2668 C   0  0  0  0  0  0  0  0  0  0  0  0
   -0.3941   -4.0499    2.9610 C   0  0  0  0  0  0  0  0  0  0  0  0
   -0.2270   -3.5187    1.5380 C   0  0  0  0  0  0  0  0  0  0  0  0
   -0.9440   -2.2952    1.3872 O   0  0  0  0  0  0  0  0  0  0  0  0
   -0.9761   -1.5308    0.2109 C   0  0  0  0  0  0  0  0  0  0  0  0
   -0.2792   -1.9164   -0.9480 C   0  0  0  0  0  0  0  0  0  0  0  0
   -0.3351   -1.1323   -2.1001 C   0  0  0  0  0  0  0  0  0  0  0  0
   -1.0872    0.0511   -2.1230 C   0  0  0  0  0  0  0  0  0  0  0  0
   -1.7552    0.4551   -0.9525 C   0  0  0  0  0  0  0  0  0  0  0  0
   -1.7229   -0.3433    0.2087 C   0  0  0  0  0  0  0  0  0  0  0  0
   -2.4182    0.0019    1.3817 O   0  0  0  0  0  0  0  0  0  0  0  0
   -3.2048    1.1798    1.5698 C   0  0  0  0  0  0  0  0  0  0  0  0
   -2.3180    2.3963    1.8572 C   0  0  0  0  0  0  0  0  0  0  0  0
   -1.6428    2.2897    3.2228 C   0  0  0  0  0  0  0  0  0  0  0  0
   -1.0758    0.9169   -3.3682 C   0  0  1  0  0  0  0  0  0  0  0  0
   -2.4670    1.4458   -3.7391 C   0  0  0  0  0  0  0  0  0  0  0  0
   -0.1417    2.0280   -3.1782 N   0  0  0  0  0  0  0  0  0  0  0  0
    1.2493    1.9081   -3.5106 C   0  0  0  0  0  0  0  0  0  0  0  0
    1.6379    1.0155   -4.3118 O   0  0  0  0  0  0  0  0  0  0  0  0
    2.2640    2.8196   -2.8907 C   0  0  0  0  0  0  0  0  0  0  0  0
    3.2044    2.0581   -2.1328 O   0  0  0  0  0  0  0  0  0  0  0  0
    2.9221    1.3542   -0.9484 C   0  0  0  0  0  0  0  0  0  0  0  0
    1.7325    1.5776   -0.2299 C   0  0  0  0  0  0  0  0  0  0  0  0
    1.4597    0.8642    0.9351 C   0  0  0  0  0  0  0  0  0  0  0  0
    2.3573   -0.1011    1.4075 C   0  0  0  0  0  0  0  0  0  0  0  0
    3.5461   -0.3292    0.6979 C   0  0  0  0  0  0  0  0  0  0  0  0
    3.8490    0.3978   -0.4708 C   0  0  0  0  0  0  0  0  0  0  0  0
    5.0882    0.1436   -1.1664 N   0  0  0  0  0  0  0  0  0  0  0  0
    5.7706   -0.8657   -0.8924 O   0  0  0  0  0  0  0  0  0  0  0  0
    5.5752    1.0279   -2.1012 O   0  0  0  0  0  0  0  0  0  0  0  0
    2.0615   -0.8633    2.6412 C   0  0  0  0  0  0  0  0  0  0  0  0
    1.0183   -0.6256    3.3064 O   0  0  0  0  0  0  0  0  0  0  0  0
    2.9303   -1.8541    3.0836 O   0  0  0  0  0  0  0  0  0  0  0  0
   -2.2143   -5.1759    2.5560 H   0  0  0  0  0  0  0  0  0  0  0  0
   -2.4914   -3.5030    3.1953 H   0  0  0  0  0  0  0  0  0  0  0  0
   -1.9207   -4.8101    4.2981 H   0  0  0  0  0  0  0  0  0  0  0  0
   -0.0411   -3.2857    3.6865 H   0  0  0  0  0  0  0  0  0  0  0  0
    0.2332   -4.9591    3.0838 H   0  0  0  0  0  0  0  0  0  0  0  0
   -0.6018   -4.2705    0.8095 H   0  0  0  0  0  0  0  0  0  0  0  0
    0.8539   -3.3410    1.3497 H   0  0  0  0  0  0  0  0  0  0  0  0
    0.3122   -2.8212   -0.9689 H   0  0  0  0  0  0  0  0  0  0  0  0
    0.2195   -1.4474   -2.9754 H   0  0  0  0  0  0  0  0  0  0  0  0
   -2.2910    1.3908   -0.9503 H   0  0  0  0  0  0  0  0  0  0  0  0
   -3.8509    1.3638    0.6855 H   0  0  0  0  0  0  0  0  0  0  0  0
   -3.8874    1.0145    2.4304 H   0  0  0  0  0  0  0  0  0  0  0  0
   -1.5418    2.5012    1.0704 H   0  0  0  0  0  0  0  0  0  0  0  0
   -2.9461    3.3128    1.8404 H   0  0  0  0  0  0  0  0  0  0  0  0
   -0.9720    3.1613    3.3747 H   0  0  0  0  0  0  0  0  0  0  0  0
   -2.4065    2.2846    4.0294 H   0  0  0  0  0  0  0  0  0  0  0  0
   -1.0395    1.3607    3.2903 H   0  0  0  0  0  0  0  0  0  0  0  0
   -0.7501    0.3013   -4.2364 H   0  0  0  0  0  0  0  0  0  0  0  0
   -3.1954    0.6083   -3.7873 H   0  0  0  0  0  0  0  0  0  0  0  0
   -2.8259    2.2005   -3.0089 H   0  0  0  0  0  0  0  0  0  0  0  0
   -2.4255    1.9311   -4.7375 H   0  0  0  0  0  0  0  0  0  0  0  0
   -0.4436    2.8310   -2.5807 H   0  0  0  0  0  0  0  0  0  0  0  0
    1.7908    3.6000   -2.2585 H   0  0  0  0  0  0  0  0  0  0  0  0
    2.8089    3.3429   -3.7037 H   0  0  0  0  0  0  0  0  0  0  0  0
    1.0083    2.3088   -0.5567 H   0  0  0  0  0  0  0  0  0  0  0  0
    0.5393    1.0659    1.4639 H   0  0  0  0  0  0  0  0  0  0  0  0
    4.2494   -1.0663    1.0638 H   0  0  0  0  0  0  0  0  0  0  0  0
  1  2  1  0
  2  3  1  0
  3  4  1  0
  4  5  1  0
  5  6  2  0
  6  7  1  0
  7  8  2  0
  8  9  1  0
  9 10  2  0
 10 11  1  0
 11 12  1  0
 12 13  1  0
 13 14  1  0
  8 15  1  0
 15 16  1  0
 15 17  1  0
 17 18  1  0
 18 19  2  0
 18 20  1  0
 20 21  1  0
 21 22  1  0
 22 23  2  0
 23 24  1  0
 24 25  2  0
 25 26  1  0
 26 27  2  0
 27 28  1  0
 28 29  2  0
 28 30  1  0
 25 31  1  0
 31 32  2  0
 31 33  1  0
 10  5  1  0
 27 22  1  0
  1 34  1  0
  1 35  1  0
  1 36  1  0
  2 37  1  0
  2 38  1  0
  3 39  1  0
  3 40  1  0
  6 41  1  0
  7 42  1  0
  9 43  1  0
 12 44  1  0
 12 45  1  0
 13 46  1  0
 13 47  1  0
 14 48  1  0
 14 49  1  0
 14 50  1  0
 15 51  1  6
 16 52  1  0
 16 53  1  0
 16 54  1  0
 17 55  1  0
 20 56  1  0
 20 57  1  0
 23 58  1  0
 24 59  1  0
 26 60  1  0
M  CHG  3  28   1  30  -1  33  -1
M  END
$$$$
