
     RDKit          3D

 59 63  0  0  0  0  0  0  0  0999 V2000
   -5.9719    0.8900    1.0700 C   0  0  0  0  0  0  0  0  0  0  0  0
   -6.0288   -0.0942   -0.0666 C   0  0  0  0  0  0  0  0  0  0  0  0
   -7.2459   -0.3222   -0.7267 C   0  0  0  0  0  0  0  0  0  0  0  0
   -7.3173   -1.2294   -1.7837 C   0  0  0  0  0  0  0  0  0  0  0  0
   -6.1803   -1.9296   -2.1862 C   0  0  0  0  0  0  0  0  0  0  0  0
   -4.9573   -1.7406   -1.5246 C   0  0  0  0  0  0  0  0  0  0  0  0
   -4.8768   -0.8111   -0.4623 C   0  0  0  0  0  0  0  0  0  0  0  0
   -3.6249   -0.5916    0.2124 N   0  0  0  0  0  0  0  0  0  0  0  0
   -2.6206    0.2200   -0.4266 C   0  0  0  0  0  0  0  0  0  0  0  0
   -1.3000    0.1364   -0.1520 N   0  0  0  0  0  0  0  0  0  0  0  0
   -0.5621    0.9793   -0.9279 C   0  0  0  0  0  0  0  0  0  0  0  0
   -1.2990    1.7158   -1.8531 C   0  0  0  0  0  0  0  0  0  0  0  0
   -2.9206    1.3145   -1.6709 S   0  0  0  0  0  0  0  0  0  0  0  0
    0.9166    1.0524   -0.8819 C   0  0  0  0  0  0  0  0  0  0  0  0
    1.7015    0.6809    0.1568 C   0  0  0  0  0  0  0  0  0  0  0  0
    1.1072    0.2028    1.4644 C   0  0  0  0  0  0  0  0  0  0  0  0
    2.1034    0.3077    2.6169 C   0  0  0  0  0  0  0  0  0  0  0  0
    3.4091   -0.4061    2.2748 C   0  0  0  0  0  0  0  0  0  0  0  0
    4.0284    0.1517    1.0081 C   0  0  0  0  0  0  0  0  0  0  0  0
    3.1897    0.6817    0.0001 C   0  0  0  0  0  0  0  0  0  0  0  0
    3.7458    1.1996   -1.1270 N   0  0  0  0  0  0  0  0  0  0  0  0
    5.0812    1.2132   -1.3513 C   0  0  0  0  0  0  0  0  0  0  0  0
    5.5699    1.7611   -2.5432 C   0  0  0  0  0  0  0  0  0  0  0  0
    6.9390    1.7515   -2.8109 C   0  0  0  0  0  0  0  0  0  0  0  0
    7.8253    1.1858   -1.8943 C   0  0  0  0  0  0  0  0  0  0  0  0
    7.3489    0.6364   -0.7004 C   0  0  0  0  0  0  0  0  0  0  0  0
    5.9676    0.6573   -0.4010 C   0  0  0  0  0  0  0  0  0  0  0  0
    5.4322    0.1160    0.7958 C   0  0  0  0  0  0  0  0  0  0  0  0
    6.3191   -0.4865    1.8178 C   0  0  0  0  0  0  0  0  0  0  0  0
    7.2563    0.1857    2.3236 O   0  0  0  0  0  0  0  0  0  0  0  0
    6.1061   -1.7915    2.2451 O   0  0  0  0  0  0  0  0  0  0  0  0
   -3.4131   -1.2137    1.4963 C   0  0  0  0  0  0  0  0  0  0  0  0
   -4.0629   -2.2504    1.8024 O   0  0  0  0  0  0  0  0  0  0  0  0
   -2.4446   -0.6572    2.4933 C   0  0  0  0  0  0  0  0  0  0  0  0
   -3.7417   -2.5015   -1.9800 C   0  0  0  0  0  0  0  0  0  0  0  0
   -6.8798    1.5292    1.0993 H   0  0  0  0  0  0  0  0  0  0  0  0
   -5.0914    1.5571    0.9564 H   0  0  0  0  0  0  0  0  0  0  0  0
   -5.8934    0.3421    2.0322 H   0  0  0  0  0  0  0  0  0  0  0  0
   -8.1417    0.2084   -0.4286 H   0  0  0  0  0  0  0  0  0  0  0  0
   -8.2584   -1.3902   -2.2937 H   0  0  0  0  0  0  0  0  0  0  0  0
   -6.2571   -2.6256   -3.0125 H   0  0  0  0  0  0  0  0  0  0  0  0
   -0.8991    2.4177   -2.5730 H   0  0  0  0  0  0  0  0  0  0  0  0
    1.3823    1.4408   -1.7793 H   0  0  0  0  0  0  0  0  0  0  0  0
    0.2300    0.8263    1.7395 H   0  0  0  0  0  0  0  0  0  0  0  0
    0.7855   -0.8549    1.3506 H   0  0  0  0  0  0  0  0  0  0  0  0
    1.6602   -0.1495    3.5280 H   0  0  0  0  0  0  0  0  0  0  0  0
    2.3106    1.3790    2.8357 H   0  0  0  0  0  0  0  0  0  0  0  0
    3.2202   -1.4931    2.1403 H   0  0  0  0  0  0  0  0  0  0  0  0
    4.0902   -0.2728    3.1419 H   0  0  0  0  0  0  0  0  0  0  0  0
    4.8873    2.1888   -3.2674 H   0  0  0  0  0  0  0  0  0  0  0  0
    7.3126    2.1740   -3.7347 H   0  0  0  0  0  0  0  0  0  0  0  0
    8.8855    1.1677   -2.1116 H   0  0  0  0  0  0  0  0  0  0  0  0
    8.0699    0.1898   -0.0306 H   0  0  0  0  0  0  0  0  0  0  0  0
   -1.4545   -1.1360    2.3553 H   0  0  0  0  0  0  0  0  0  0  0  0
   -2.3542    0.4429    2.3763 H   0  0  0  0  0  0  0  0  0  0  0  0
   -2.8001   -0.8658    3.5244 H   0  0  0  0  0  0  0  0  0  0  0  0
   -4.0213   -3.3639   -2.6218 H   0  0  0  0  0  0  0  0  0  0  0  0
   -3.0778   -1.8279   -2.5610 H   0  0  0  0  0  0  0  0  0  0  0  0
   -3.1847   -2.8983   -1.1053 H   0  0  0  0  0  0  0  0  0  0  0  0
  1  2  1  0
  2  3  2  0
  3  4  1  0
  4  5  2  0
  5  6  1  0
  6  7  2  0
  7  8  1  0
  8  9  1  0
  9 10  2  0
 10 11  1  0
 11 12  2  0
 12 13  1  0
 11 14  1  0
 14 15  2  0
 15 16  1  0
 16 17  1  0
 17 18  1  0
 18 19  1  0
 19 20  2  0
 20 21  1  0
 21 22  2  0
 22 23  1  0
 23 24  2  0
 24 25  1  0
 25 26  2  0
 26 27  1  0
 27 28  2  0
 28 29  1  0
 29 30  2  0
 29 31  1  0
  8 32  1  0
 32 33  2  0
 32 34  1  0
  6 35  1  0
  7  2  1  0
 13  9  1  0
 20 15  1  0
 28 19  1  0
 27 22  1  0
  1 36  1  0
  1 37  1  0
  1 38  1  0
  3 39  1  0
  4 40  1  0
  5 41  1  0
 12 42  1  0
 14 43  1  0
 16 44  1  0
 16 45  1  0
 17 46  1  0
 17 47  1  0
 18 48  1  0
 18 49  1  0
 23 50  1  0
 24 51  1  0
 25 52  1  0
 26 53  1  0
 34 54  1  0
 34 55  1  0
 34 56  1  0
 35 57  1  0
 35 58  1  0
 35 59  1  0
M  CHG  1  31  -1
M  END
$$$$
