
     RDKit          3D

 59 63  0  0  0  0  0  0  0  0999 V2000
   -4.1519    2.3065    1.3017 C   0  0  0  0  0  0  0  0  0  0  0  0
   -4.0670    1.5344    0.0130 C   0  0  0  0  0  0  0  0  0  0  0  0
   -4.0899    2.2231   -1.2094 C   0  0  0  0  0  0  0  0  0  0  0  0
   -3.9922    1.5279   -2.4143 C   0  0  0  0  0  0  0  0  0  0  0  0
   -3.8863    0.1376   -2.4160 C   0  0  0  0  0  0  0  0  0  0  0  0
   -3.8938   -0.5779   -1.2091 C   0  0  0  0  0  0  0  0  0  0  0  0
   -3.9770    0.1234    0.0167 C   0  0  0  0  0  0  0  0  0  0  0  0
   -3.9207   -0.5917    1.2647 N   0  0  0  0  0  0  0  0  0  0  0  0
   -2.6527   -1.1279    1.6849 C   0  0  0  0  0  0  0  0  0  0  0  0
   -1.4798   -0.7188    1.1572 N   0  0  0  0  0  0  0  0  0  0  0  0
   -0.4256   -1.4490    1.6093 C   0  0  0  0  0  0  0  0  0  0  0  0
   -0.7575   -2.4459    2.5242 C   0  0  0  0  0  0  0  0  0  0  0  0
   -2.4278   -2.4284    2.7308 S   0  0  0  0  0  0  0  0  0  0  0  0
    0.9729   -1.1828    1.2059 C   0  0  0  0  0  0  0  0  0  0  0  0
    1.3591   -0.5460    0.0743 C   0  0  0  0  0  0  0  0  0  0  0  0
    0.3510   -0.1045   -0.9694 C   0  0  0  0  0  0  0  0  0  0  0  0
    1.0039    0.1427   -2.3273 C   0  0  0  0  0  0  0  0  0  0  0  0
    2.1790    1.1091   -2.1988 C   0  0  0  0  0  0  0  0  0  0  0  0
    3.2156    0.5908   -1.2209 C   0  0  0  0  0  0  0  0  0  0  0  0
    2.8031   -0.2157   -0.1348 C   0  0  0  0  0  0  0  0  0  0  0  0
    3.7338   -0.6968    0.7312 N   0  0  0  0  0  0  0  0  0  0  0  0
    5.0551   -0.4203    0.6220 C   0  0  0  0  0  0  0  0  0  0  0  0
    5.9460   -0.9523    1.5615 C   0  0  0  0  0  0  0  0  0  0  0  0
    7.3059   -0.6498    1.4893 C   0  0  0  0  0  0  0  0  0  0  0  0
    7.7808    0.1936    0.4849 C   0  0  0  0  0  0  0  0  0  0  0  0
    6.9007    0.7302   -0.4593 C   0  0  0  0  0  0  0  0  0  0  0  0
    5.5230    0.4169   -0.4163 C   0  0  0  0  0  0  0  0  0  0  0  0
    4.5880    0.9323   -1.3503 C   0  0  0  0  0  0  0  0  0  0  0  0
    5.0277    1.8222   -2.4497 C   0  0  0  0  0  0  0  0  0  0  0  0
    5.9085    1.4401   -3.2647 O   0  0  0  0  0  0  0  0  0  0  0  0
    4.4512    3.0770   -2.6050 O   0  0  0  0  0  0  0  0  0  0  0  0
   -5.1286   -0.7473    2.0343 C   0  0  0  0  0  0  0  0  0  0  0  0
   -6.2392   -0.8237    1.4424 O   0  0  0  0  0  0  0  0  0  0  0  0
   -5.1069   -0.7914    3.5308 C   0  0  0  0  0  0  0  0  0  0  0  0
   -3.7625   -2.0766   -1.2394 C   0  0  0  0  0  0  0  0  0  0  0  0
   -5.1607    2.1781    1.7463 H   0  0  0  0  0  0  0  0  0  0  0  0
   -3.3862    1.9421    2.0187 H   0  0  0  0  0  0  0  0  0  0  0  0
   -3.9731    3.3905    1.1380 H   0  0  0  0  0  0  0  0  0  0  0  0
   -4.1707    3.3029   -1.2315 H   0  0  0  0  0  0  0  0  0  0  0  0
   -3.9958    2.0697   -3.3513 H   0  0  0  0  0  0  0  0  0  0  0  0
   -3.8028   -0.3818   -3.3627 H   0  0  0  0  0  0  0  0  0  0  0  0
   -0.0670   -3.1272    3.0036 H   0  0  0  0  0  0  0  0  0  0  0  0
    1.7270   -1.5370    1.8979 H   0  0  0  0  0  0  0  0  0  0  0  0
   -0.4178   -0.8924   -1.1216 H   0  0  0  0  0  0  0  0  0  0  0  0
   -0.1486    0.8277   -0.6261 H   0  0  0  0  0  0  0  0  0  0  0  0
    1.3600   -0.8223   -2.7521 H   0  0  0  0  0  0  0  0  0  0  0  0
    0.2501    0.5678   -3.0251 H   0  0  0  0  0  0  0  0  0  0  0  0
    1.8152    2.1010   -1.8534 H   0  0  0  0  0  0  0  0  0  0  0  0
    2.6145    1.2288   -3.2134 H   0  0  0  0  0  0  0  0  0  0  0  0
    5.5836   -1.5958    2.3539 H   0  0  0  0  0  0  0  0  0  0  0  0
    7.9912   -1.0612    2.2191 H   0  0  0  0  0  0  0  0  0  0  0  0
    8.8346    0.4372    0.4402 H   0  0  0  0  0  0  0  0  0  0  0  0
    7.3101    1.3956   -1.2060 H   0  0  0  0  0  0  0  0  0  0  0  0
   -6.0066   -0.2822    3.9361 H   0  0  0  0  0  0  0  0  0  0  0  0
   -5.1074   -1.8462    3.8750 H   0  0  0  0  0  0  0  0  0  0  0  0
   -4.2087   -0.2687    3.9211 H   0  0  0  0  0  0  0  0  0  0  0  0
   -4.0438   -2.4844   -2.2336 H   0  0  0  0  0  0  0  0  0  0  0  0
   -4.4313   -2.5410   -0.4845 H   0  0  0  0  0  0  0  0  0  0  0  0
   -2.7119   -2.3620   -1.0228 H   0  0  0  0  0  0  0  0  0  0  0  0
  1  2  1  0
  2  3  2  0
  3  4  1  0
  4  5  2  0
  5  6  1  0
  6  7  2  0
  7  8  1  0
  8  9  1  0
  9 10  2  0
 10 11  1  0
 11 12  2  0
 12 13  1  0
 11 14  1  0
 14 15  2  0
 15 16  1  0
 16 17  1  0
 17 18  1  0
 18 19  1  0
 19 20  2  0
 20 21  1  0
 21 22  2  0
 22 23  1  0
 23 24  2  0
 24 25  1  0
 25 26  2  0
 26 27  1  0
 27 28  2  0
 28 29  1  0
 29 30  2  0
 29 31  1  0
  8 32  1  0
 32 33  2  0
 32 34  1  0
  6 35  1  0
  7  2  1  0
 13  9  1  0
 20 15  1  0
 28 19  1  0
 27 22  1  0
  1 36  1  0
  1 37  1  0
  1 38  1  0
  3 39  1  0
  4 40  1  0
  5 41  1  0
 12 42  1  0
 14 43  1  0
 16 44  1  0
 16 45  1  0
 17 46  1  0
 17 47  1  0
 18 48  1  0
 18 49  1  0
 23 50  1  0
 24 51  1  0
 25 52  1  0
 26 53  1  0
 34 54  1  0
 34 55  1  0
 34 56  1  0
 35 57  1  0
 35 58  1  0
 35 59  1  0
M  CHG  1  31  -1
M  END
$$$$
