
     RDKit          3D

 59 63  0  0  0  0  0  0  0  0999 V2000
   -4.5571   -1.9512    1.9792 C   0  0  0  0  0  0  0  0  0  0  0  0
   -5.4737   -0.8880    1.4373 C   0  0  0  0  0  0  0  0  0  0  0  0
   -6.6939   -0.6317    2.0811 C   0  0  0  0  0  0  0  0  0  0  0  0
   -7.5543    0.3543    1.5984 C   0  0  0  0  0  0  0  0  0  0  0  0
   -7.2027    1.1056    0.4772 C   0  0  0  0  0  0  0  0  0  0  0  0
   -5.9761    0.8876   -0.1686 C   0  0  0  0  0  0  0  0  0  0  0  0
   -5.1068   -0.1192    0.3091 C   0  0  0  0  0  0  0  0  0  0  0  0
   -3.8495   -0.3568   -0.3494 N   0  0  0  0  0  0  0  0  0  0  0  0
   -2.6425    0.1628    0.2414 C   0  0  0  0  0  0  0  0  0  0  0  0
   -1.4097   -0.3228   -0.0217 N   0  0  0  0  0  0  0  0  0  0  0  0
   -0.4466    0.3244    0.6869 C   0  0  0  0  0  0  0  0  0  0  0  0
   -0.9144    1.3034    1.5624 C   0  0  0  0  0  0  0  0  0  0  0  0
   -2.5861    1.3813    1.4042 S   0  0  0  0  0  0  0  0  0  0  0  0
    0.9632   -0.0898    0.6040 C   0  0  0  0  0  0  0  0  0  0  0  0
    1.9795    0.7174    0.2269 C   0  0  0  0  0  0  0  0  0  0  0  0
    1.7177    2.1272   -0.2663 C   0  0  0  0  0  0  0  0  0  0  0  0
    2.9884    2.9738   -0.2513 C   0  0  0  0  0  0  0  0  0  0  0  0
    4.1077    2.2898   -1.0341 C   0  0  0  0  0  0  0  0  0  0  0  0
    4.4008    0.9040   -0.4916 C   0  0  0  0  0  0  0  0  0  0  0  0
    3.3627    0.1615    0.1176 C   0  0  0  0  0  0  0  0  0  0  0  0
    3.6312   -1.0700    0.6263 N   0  0  0  0  0  0  0  0  0  0  0  0
    4.8539   -1.6474    0.5518 C   0  0  0  0  0  0  0  0  0  0  0  0
    5.0426   -2.9240    1.0941 C   0  0  0  0  0  0  0  0  0  0  0  0
    6.2841   -3.5525    0.9950 C   0  0  0  0  0  0  0  0  0  0  0  0
    7.3400   -2.9133    0.3451 C   0  0  0  0  0  0  0  0  0  0  0  0
    7.1637   -1.6378   -0.1992 C   0  0  0  0  0  0  0  0  0  0  0  0
    5.9199   -0.9754   -0.0887 C   0  0  0  0  0  0  0  0  0  0  0  0
    5.6887    0.3195   -0.6199 C   0  0  0  0  0  0  0  0  0  0  0  0
    6.7719    1.0615   -1.3057 C   0  0  0  0  0  0  0  0  0  0  0  0
    7.8579    1.2955   -0.7126 O   0  0  0  0  0  0  0  0  0  0  0  0
    6.5865    1.5282   -2.6014 O   0  0  0  0  0  0  0  0  0  0  0  0
   -3.8416   -1.1254   -1.5705 C   0  0  0  0  0  0  0  0  0  0  0  0
   -4.7914   -1.9182   -1.8154 O   0  0  0  0  0  0  0  0  0  0  0  0
   -2.7343   -1.0040   -2.5726 C   0  0  0  0  0  0  0  0  0  0  0  0
   -5.6138    1.7096   -1.3755 C   0  0  0  0  0  0  0  0  0  0  0  0
   -3.7111   -1.4739    2.5162 H   0  0  0  0  0  0  0  0  0  0  0  0
   -4.1593   -2.5756    1.1518 H   0  0  0  0  0  0  0  0  0  0  0  0
   -5.0901   -2.6241    2.6842 H   0  0  0  0  0  0  0  0  0  0  0  0
   -6.9845   -1.1999    2.9561 H   0  0  0  0  0  0  0  0  0  0  0  0
   -8.4979    0.5374    2.0961 H   0  0  0  0  0  0  0  0  0  0  0  0
   -7.8870    1.8641    0.1175 H   0  0  0  0  0  0  0  0  0  0  0  0
   -0.3156    1.8889    2.2475 H   0  0  0  0  0  0  0  0  0  0  0  0
    1.1506   -1.1386    0.7965 H   0  0  0  0  0  0  0  0  0  0  0  0
    1.3172    2.0773   -1.3022 H   0  0  0  0  0  0  0  0  0  0  0  0
    0.9727    2.6476    0.3657 H   0  0  0  0  0  0  0  0  0  0  0  0
    2.7748    3.9660   -0.7047 H   0  0  0  0  0  0  0  0  0  0  0  0
    3.3148    3.1389    0.7997 H   0  0  0  0  0  0  0  0  0  0  0  0
    3.8219    2.2083   -2.1051 H   0  0  0  0  0  0  0  0  0  0  0  0
    5.0036    2.9420   -0.9591 H   0  0  0  0  0  0  0  0  0  0  0  0
    4.2239   -3.4341    1.5869 H   0  0  0  0  0  0  0  0  0  0  0  0
    6.4253   -4.5407    1.4133 H   0  0  0  0  0  0  0  0  0  0  0  0
    8.2980   -3.4096    0.2579 H   0  0  0  0  0  0  0  0  0  0  0  0
    8.0032   -1.1906   -0.7122 H   0  0  0  0  0  0  0  0  0  0  0  0
   -2.3586    0.0402   -2.6052 H   0  0  0  0  0  0  0  0  0  0  0  0
   -1.9077   -1.6937   -2.3037 H   0  0  0  0  0  0  0  0  0  0  0  0
   -3.1049   -1.2697   -3.5853 H   0  0  0  0  0  0  0  0  0  0  0  0
   -6.2803    2.5919   -1.4811 H   0  0  0  0  0  0  0  0  0  0  0  0
   -5.7037    1.0868   -2.2899 H   0  0  0  0  0  0  0  0  0  0  0  0
   -4.5710    2.0812   -1.2875 H   0  0  0  0  0  0  0  0  0  0  0  0
  1  2  1  0
  2  3  2  0
  3  4  1  0
  4  5  2  0
  5  6  1  0
  6  7  2  0
  7  8  1  0
  8  9  1  0
  9 10  2  0
 10 11  1  0
 11 12  2  0
 12 13  1  0
 11 14  1  0
 14 15  2  0
 15 16  1  0
 16 17  1  0
 17 18  1  0
 18 19  1  0
 19 20  2  0
 20 21  1  0
 21 22  2  0
 22 23  1  0
 23 24  2  0
 24 25  1  0
 25 26  2  0
 26 27  1  0
 27 28  2  0
 28 29  1  0
 29 30  2  0
 29 31  1  0
  8 32  1  0
 32 33  2  0
 32 34  1  0
  6 35  1  0
  7  2  1  0
 13  9  1  0
 20 15  1  0
 28 19  1  0
 27 22  1  0
  1 36  1  0
  1 37  1  0
  1 38  1  0
  3 39  1  0
  4 40  1  0
  5 41  1  0
 12 42  1  0
 14 43  1  0
 16 44  1  0
 16 45  1  0
 17 46  1  0
 17 47  1  0
 18 48  1  0
 18 49  1  0
 23 50  1  0
 24 51  1  0
 25 52  1  0
 26 53  1  0
 34 54  1  0
 34 55  1  0
 34 56  1  0
 35 57  1  0
 35 58  1  0
 35 59  1  0
M  CHG  1  31  -1
M  END
$$$$
