
     RDKit          3D

 59 63  0  0  0  0  0  0  0  0999 V2000
   -4.3626   -2.4754    1.9087 C   0  0  0  0  0  0  0  0  0  0  0  0
   -4.4823   -0.9951    1.6657 C   0  0  0  0  0  0  0  0  0  0  0  0
   -4.8064   -0.1429    2.7324 C   0  0  0  0  0  0  0  0  0  0  0  0
   -4.9070    1.2335    2.5318 C   0  0  0  0  0  0  0  0  0  0  0  0
   -4.6949    1.7759    1.2647 C   0  0  0  0  0  0  0  0  0  0  0  0
   -4.3999    0.9429    0.1747 C   0  0  0  0  0  0  0  0  0  0  0  0
   -4.2937   -0.4530    0.3737 C   0  0  0  0  0  0  0  0  0  0  0  0
   -3.9784   -1.3178   -0.7331 N   0  0  0  0  0  0  0  0  0  0  0  0
   -2.6077   -1.3955   -1.1705 C   0  0  0  0  0  0  0  0  0  0  0  0
   -1.5742   -0.9242   -0.4378 N   0  0  0  0  0  0  0  0  0  0  0  0
   -0.3861   -1.0447   -1.0886 C   0  0  0  0  0  0  0  0  0  0  0  0
   -0.4650   -1.6429   -2.3475 C   0  0  0  0  0  0  0  0  0  0  0  0
   -2.0809   -1.9873   -2.6570 S   0  0  0  0  0  0  0  0  0  0  0  0
    0.8745   -0.6501   -0.4307 C   0  0  0  0  0  0  0  0  0  0  0  0
    1.8881    0.0239   -1.0208 C   0  0  0  0  0  0  0  0  0  0  0  0
    1.7859    0.5184   -2.4482 C   0  0  0  0  0  0  0  0  0  0  0  0
    2.6340    1.7699   -2.6563 C   0  0  0  0  0  0  0  0  0  0  0  0
    4.0913    1.5042   -2.2810 C   0  0  0  0  0  0  0  0  0  0  0  0
    4.2265    0.9855   -0.8609 C   0  0  0  0  0  0  0  0  0  0  0  0
    3.1543    0.2777   -0.2676 C   0  0  0  0  0  0  0  0  0  0  0  0
    3.2769   -0.1746    1.0083 N   0  0  0  0  0  0  0  0  0  0  0  0
    4.3979   -0.0007    1.7478 C   0  0  0  0  0  0  0  0  0  0  0  0
    4.4422   -0.5043    3.0531 C   0  0  0  0  0  0  0  0  0  0  0  0
    5.5997   -0.3674    3.8196 C   0  0  0  0  0  0  0  0  0  0  0  0
    6.7215    0.2642    3.2827 C   0  0  0  0  0  0  0  0  0  0  0  0
    6.6886    0.7719    1.9807 C   0  0  0  0  0  0  0  0  0  0  0  0
    5.5175    0.6629    1.1967 C   0  0  0  0  0  0  0  0  0  0  0  0
    5.4303    1.1619   -0.1282 C   0  0  0  0  0  0  0  0  0  0  0  0
    6.5786    1.8604   -0.7515 C   0  0  0  0  0  0  0  0  0  0  0  0
    7.0792    2.8773   -0.2025 O   0  0  0  0  0  0  0  0  0  0  0  0
    7.0953    1.4130   -1.9613 O   0  0  0  0  0  0  0  0  0  0  0  0
   -5.0266   -2.0895   -1.3576 C   0  0  0  0  0  0  0  0  0  0  0  0
   -4.7480   -3.1390   -1.9978 O   0  0  0  0  0  0  0  0  0  0  0  0
   -6.4666   -1.6986   -1.2096 C   0  0  0  0  0  0  0  0  0  0  0  0
   -4.1500    1.5541   -1.1776 C   0  0  0  0  0  0  0  0  0  0  0  0
   -5.2625   -2.9926    1.5169 H   0  0  0  0  0  0  0  0  0  0  0  0
   -3.4600   -2.8770    1.4018 H   0  0  0  0  0  0  0  0  0  0  0  0
   -4.2687   -2.7009    2.9923 H   0  0  0  0  0  0  0  0  0  0  0  0
   -4.9716   -0.5425    3.7253 H   0  0  0  0  0  0  0  0  0  0  0  0
   -5.1448    1.8837    3.3639 H   0  0  0  0  0  0  0  0  0  0  0  0
   -4.7653    2.8487    1.1338 H   0  0  0  0  0  0  0  0  0  0  0  0
    0.3618   -1.8777   -3.0029 H   0  0  0  0  0  0  0  0  0  0  0  0
    0.9390   -0.8968    0.6215 H   0  0  0  0  0  0  0  0  0  0  0  0
    0.7375    0.7838   -2.7037 H   0  0  0  0  0  0  0  0  0  0  0  0
    2.1331   -0.2800   -3.1386 H   0  0  0  0  0  0  0  0  0  0  0  0
    2.5791    2.0791   -3.7226 H   0  0  0  0  0  0  0  0  0  0  0  0
    2.2331    2.6018   -2.0353 H   0  0  0  0  0  0  0  0  0  0  0  0
    4.6407    2.4620   -2.4030 H   0  0  0  0  0  0  0  0  0  0  0  0
    4.5268    0.7590   -2.9813 H   0  0  0  0  0  0  0  0  0  0  0  0
    3.5807   -1.0094    3.4728 H   0  0  0  0  0  0  0  0  0  0  0  0
    5.6308   -0.7604    4.8277 H   0  0  0  0  0  0  0  0  0  0  0  0
    7.6226    0.3565    3.8754 H   0  0  0  0  0  0  0  0  0  0  0  0
    7.5882    1.2336    1.5991 H   0  0  0  0  0  0  0  0  0  0  0  0
   -6.5840   -0.6088   -1.3819 H   0  0  0  0  0  0  0  0  0  0  0  0
   -7.0935   -2.2405   -1.9491 H   0  0  0  0  0  0  0  0  0  0  0  0
   -6.8202   -1.9482   -0.1881 H   0  0  0  0  0  0  0  0  0  0  0  0
   -4.6382    0.9538   -1.9734 H   0  0  0  0  0  0  0  0  0  0  0  0
   -4.5587    2.5854   -1.2354 H   0  0  0  0  0  0  0  0  0  0  0  0
   -3.0575    1.5932   -1.3699 H   0  0  0  0  0  0  0  0  0  0  0  0
  1  2  1  0
  2  3  2  0
  3  4  1  0
  4  5  2  0
  5  6  1  0
  6  7  2  0
  7  8  1  0
  8  9  1  0
  9 10  2  0
 10 11  1  0
 11 12  2  0
 12 13  1  0
 11 14  1  0
 14 15  2  0
 15 16  1  0
 16 17  1  0
 17 18  1  0
 18 19  1  0
 19 20  2  0
 20 21  1  0
 21 22  2  0
 22 23  1  0
 23 24  2  0
 24 25  1  0
 25 26  2  0
 26 27  1  0
 27 28  2  0
 28 29  1  0
 29 30  2  0
 29 31  1  0
  8 32  1  0
 32 33  2  0
 32 34  1  0
  6 35  1  0
  7  2  1  0
 13  9  1  0
 20 15  1  0
 28 19  1  0
 27 22  1  0
  1 36  1  0
  1 37  1  0
  1 38  1  0
  3 39  1  0
  4 40  1  0
  5 41  1  0
 12 42  1  0
 14 43  1  0
 16 44  1  0
 16 45  1  0
 17 46  1  0
 17 47  1  0
 18 48  1  0
 18 49  1  0
 23 50  1  0
 24 51  1  0
 25 52  1  0
 26 53  1  0
 34 54  1  0
 34 55  1  0
 34 56  1  0
 35 57  1  0
 35 58  1  0
 35 59  1  0
M  CHG  1  31  -1
M  END
$$$$
