
     RDKit          3D

 59 63  0  0  0  0  0  0  0  0999 V2000
   -4.2690   -1.6560    0.2023 C   0  0  0  0  0  0  0  0  0  0  0  0
   -4.1500   -0.3488   -0.5331 C   0  0  0  0  0  0  0  0  0  0  0  0
   -4.2832   -0.3211   -1.9298 C   0  0  0  0  0  0  0  0  0  0  0  0
   -4.1564    0.8798   -2.6277 C   0  0  0  0  0  0  0  0  0  0  0  0
   -3.9017    2.0673   -1.9418 C   0  0  0  0  0  0  0  0  0  0  0  0
   -3.7847    2.0695   -0.5434 C   0  0  0  0  0  0  0  0  0  0  0  0
   -3.9085    0.8545    0.1673 C   0  0  0  0  0  0  0  0  0  0  0  0
   -3.7475    0.8354    1.5963 N   0  0  0  0  0  0  0  0  0  0  0  0
   -2.4110    0.8229    2.1295 C   0  0  0  0  0  0  0  0  0  0  0  0
   -1.3368    0.4641    1.3953 N   0  0  0  0  0  0  0  0  0  0  0  0
   -0.1724    0.5861    2.0872 C   0  0  0  0  0  0  0  0  0  0  0  0
   -0.3147    1.0916    3.3781 C   0  0  0  0  0  0  0  0  0  0  0  0
   -1.9519    1.3649    3.6558 S   0  0  0  0  0  0  0  0  0  0  0  0
    1.1556    0.2945    1.5003 C   0  0  0  0  0  0  0  0  0  0  0  0
    1.3894   -0.4503    0.3928 C   0  0  0  0  0  0  0  0  0  0  0  0
    0.2656   -1.1585   -0.3390 C   0  0  0  0  0  0  0  0  0  0  0  0
    0.7836   -2.2635   -1.2573 C   0  0  0  0  0  0  0  0  0  0  0  0
    1.8624   -1.7306   -2.1970 C   0  0  0  0  0  0  0  0  0  0  0  0
    3.0201   -1.1331   -1.4216 C   0  0  0  0  0  0  0  0  0  0  0  0
    2.7750   -0.5291   -0.1666 C   0  0  0  0  0  0  0  0  0  0  0  0
    3.8148   -0.0122    0.5400 N   0  0  0  0  0  0  0  0  0  0  0  0
    5.0913   -0.0225    0.0876 C   0  0  0  0  0  0  0  0  0  0  0  0
    6.1023    0.5373    0.8775 C   0  0  0  0  0  0  0  0  0  0  0  0
    7.4177    0.5711    0.4142 C   0  0  0  0  0  0  0  0  0  0  0  0
    7.7277    0.0553   -0.8442 C   0  0  0  0  0  0  0  0  0  0  0  0
    6.7266   -0.5070   -1.6415 C   0  0  0  0  0  0  0  0  0  0  0  0
    5.3921   -0.5710   -1.1798 C   0  0  0  0  0  0  0  0  0  0  0  0
    4.3394   -1.1324   -1.9471 C   0  0  0  0  0  0  0  0  0  0  0  0
    4.6021   -1.7096   -3.2857 C   0  0  0  0  0  0  0  0  0  0  0  0
    5.4443   -2.6355   -3.4258 O   0  0  0  0  0  0  0  0  0  0  0  0
    3.9006   -1.2503   -4.3937 O   0  0  0  0  0  0  0  0  0  0  0  0
   -4.9238    0.7982    2.4276 C   0  0  0  0  0  0  0  0  0  0  0  0
   -5.9879    1.3431    2.0269 O   0  0  0  0  0  0  0  0  0  0  0  0
   -4.9298    0.0996    3.7521 C   0  0  0  0  0  0  0  0  0  0  0  0
   -3.4818    3.3556    0.1760 C   0  0  0  0  0  0  0  0  0  0  0  0
   -4.3076   -2.5168   -0.4986 H   0  0  0  0  0  0  0  0  0  0  0  0
   -3.3921   -1.7980    0.8687 H   0  0  0  0  0  0  0  0  0  0  0  0
   -5.1961   -1.6575    0.8124 H   0  0  0  0  0  0  0  0  0  0  0  0
   -4.4765   -1.2319   -2.4830 H   0  0  0  0  0  0  0  0  0  0  0  0
   -4.2509    0.8895   -3.7059 H   0  0  0  0  0  0  0  0  0  0  0  0
   -3.7961    2.9867   -2.5044 H   0  0  0  0  0  0  0  0  0  0  0  0
    0.4867    1.2867    4.0784 H   0  0  0  0  0  0  0  0  0  0  0  0
    1.9935    0.7439    2.0191 H   0  0  0  0  0  0  0  0  0  0  0  0
   -0.3041   -0.4174   -0.9413 H   0  0  0  0  0  0  0  0  0  0  0  0
   -0.4221   -1.6419    0.3878 H   0  0  0  0  0  0  0  0  0  0  0  0
   -0.0606   -2.6692   -1.8560 H   0  0  0  0  0  0  0  0  0  0  0  0
    1.2007   -3.0937   -0.6447 H   0  0  0  0  0  0  0  0  0  0  0  0
    1.4310   -0.9542   -2.8653 H   0  0  0  0  0  0  0  0  0  0  0  0
    2.2000   -2.5840   -2.8222 H   0  0  0  0  0  0  0  0  0  0  0  0
    5.8678    0.9540    1.8495 H   0  0  0  0  0  0  0  0  0  0  0  0
    8.1962    1.0070    1.0269 H   0  0  0  0  0  0  0  0  0  0  0  0
    8.7471    0.0956   -1.2063 H   0  0  0  0  0  0  0  0  0  0  0  0
    7.0095   -0.8744   -2.6177 H   0  0  0  0  0  0  0  0  0  0  0  0
   -5.9246   -0.3599    3.9322 H   0  0  0  0  0  0  0  0  0  0  0  0
   -4.1686   -0.7083    3.7674 H   0  0  0  0  0  0  0  0  0  0  0  0
   -4.7215    0.8289    4.5618 H   0  0  0  0  0  0  0  0  0  0  0  0
   -3.6449    4.2362   -0.4811 H   0  0  0  0  0  0  0  0  0  0  0  0
   -4.1429    3.4662    1.0611 H   0  0  0  0  0  0  0  0  0  0  0  0
   -2.4230    3.3533    0.5095 H   0  0  0  0  0  0  0  0  0  0  0  0
  1  2  1  0
  2  3  2  0
  3  4  1  0
  4  5  2  0
  5  6  1  0
  6  7  2  0
  7  8  1  0
  8  9  1  0
  9 10  2  0
 10 11  1  0
 11 12  2  0
 12 13  1  0
 11 14  1  0
 14 15  2  0
 15 16  1  0
 16 17  1  0
 17 18  1  0
 18 19  1  0
 19 20  2  0
 20 21  1  0
 21 22  2  0
 22 23  1  0
 23 24  2  0
 24 25  1  0
 25 26  2  0
 26 27  1  0
 27 28  2  0
 28 29  1  0
 29 30  2  0
 29 31  1  0
  8 32  1  0
 32 33  2  0
 32 34  1  0
  6 35  1  0
  7  2  1  0
 13  9  1  0
 20 15  1  0
 28 19  1  0
 27 22  1  0
  1 36  1  0
  1 37  1  0
  1 38  1  0
  3 39  1  0
  4 40  1  0
  5 41  1  0
 12 42  1  0
 14 43  1  0
 16 44  1  0
 16 45  1  0
 17 46  1  0
 17 47  1  0
 18 48  1  0
 18 49  1  0
 23 50  1  0
 24 51  1  0
 25 52  1  0
 26 53  1  0
 34 54  1  0
 34 55  1  0
 34 56  1  0
 35 57  1  0
 35 58  1  0
 35 59  1  0
M  CHG  1  31  -1
M  END
$$$$
