
     RDKit          3D

 59 63  0  0  0  0  0  0  0  0999 V2000
   -4.4543    1.9049    0.4706 C   0  0  0  0  0  0  0  0  0  0  0  0
   -5.3851    0.7529    0.2041 C   0  0  0  0  0  0  0  0  0  0  0  0
   -6.7235    0.8345    0.6179 C   0  0  0  0  0  0  0  0  0  0  0  0
   -7.6007   -0.2247    0.3861 C   0  0  0  0  0  0  0  0  0  0  0  0
   -7.1513   -1.3830   -0.2477 C   0  0  0  0  0  0  0  0  0  0  0  0
   -5.8110   -1.5010   -0.6461 C   0  0  0  0  0  0  0  0  0  0  0  0
   -4.9215   -0.4252   -0.4252 C   0  0  0  0  0  0  0  0  0  0  0  0
   -3.5467   -0.5313   -0.8364 N   0  0  0  0  0  0  0  0  0  0  0  0
   -2.5387   -0.7880    0.1599 C   0  0  0  0  0  0  0  0  0  0  0  0
   -1.2360   -0.4659    0.0082 N   0  0  0  0  0  0  0  0  0  0  0  0
   -0.5029   -0.7621    1.1168 C   0  0  0  0  0  0  0  0  0  0  0  0
   -1.2253   -1.3443    2.1561 C   0  0  0  0  0  0  0  0  0  0  0  0
   -2.8332   -1.4558    1.6776 S   0  0  0  0  0  0  0  0  0  0  0  0
    0.9609   -0.5613    1.2018 C   0  0  0  0  0  0  0  0  0  0  0  0
    1.6829    0.3230    0.4739 C   0  0  0  0  0  0  0  0  0  0  0  0
    1.0166    1.2924   -0.4809 C   0  0  0  0  0  0  0  0  0  0  0  0
    1.9101    2.4923   -0.7870 C   0  0  0  0  0  0  0  0  0  0  0  0
    3.2792    2.0379   -1.2876 C   0  0  0  0  0  0  0  0  0  0  0  0
    3.9623    1.1281   -0.2850 C   0  0  0  0  0  0  0  0  0  0  0  0
    3.1764    0.3150    0.5647 C   0  0  0  0  0  0  0  0  0  0  0  0
    3.7891   -0.4852    1.4770 N   0  0  0  0  0  0  0  0  0  0  0  0
    5.1352   -0.5652    1.6017 C   0  0  0  0  0  0  0  0  0  0  0  0
    5.6844   -1.4195    2.5651 C   0  0  0  0  0  0  0  0  0  0  0  0
    7.0687   -1.5444    2.6853 C   0  0  0  0  0  0  0  0  0  0  0  0
    7.9106   -0.8247    1.8374 C   0  0  0  0  0  0  0  0  0  0  0  0
    7.3735    0.0319    0.8721 C   0  0  0  0  0  0  0  0  0  0  0  0
    5.9742    0.1890    0.7504 C   0  0  0  0  0  0  0  0  0  0  0  0
    5.3785    1.0453   -0.2099 C   0  0  0  0  0  0  0  0  0  0  0  0
    6.2196    1.8491   -1.1265 C   0  0  0  0  0  0  0  0  0  0  0  0
    6.0734    1.7493   -2.3734 O   0  0  0  0  0  0  0  0  0  0  0  0
    7.1625    2.7339   -0.6175 O   0  0  0  0  0  0  0  0  0  0  0  0
   -3.2221   -0.3400   -2.2290 C   0  0  0  0  0  0  0  0  0  0  0  0
   -4.0076    0.3120   -2.9696 O   0  0  0  0  0  0  0  0  0  0  0  0
   -1.9725   -0.9042   -2.8325 C   0  0  0  0  0  0  0  0  0  0  0  0
   -5.3449   -2.7595   -1.3263 C   0  0  0  0  0  0  0  0  0  0  0  0
   -5.0169    2.8319    0.7116 H   0  0  0  0  0  0  0  0  0  0  0  0
   -3.7937    1.6584    1.3278 H   0  0  0  0  0  0  0  0  0  0  0  0
   -3.8301    2.1121   -0.4240 H   0  0  0  0  0  0  0  0  0  0  0  0
   -7.0922    1.7226    1.1161 H   0  0  0  0  0  0  0  0  0  0  0  0
   -8.6338   -0.1478    0.6997 H   0  0  0  0  0  0  0  0  0  0  0  0
   -7.8502   -2.1921   -0.4205 H   0  0  0  0  0  0  0  0  0  0  0  0
   -0.8255   -1.6643    3.1094 H   0  0  0  0  0  0  0  0  0  0  0  0
    1.4692   -1.1933    1.9195 H   0  0  0  0  0  0  0  0  0  0  0  0
    0.7741    0.7630   -1.4271 H   0  0  0  0  0  0  0  0  0  0  0  0
    0.0796    1.6924   -0.0374 H   0  0  0  0  0  0  0  0  0  0  0  0
    2.0346    3.1095    0.1306 H   0  0  0  0  0  0  0  0  0  0  0  0
    1.4246    3.1237   -1.5624 H   0  0  0  0  0  0  0  0  0  0  0  0
    3.1673    1.4977   -2.2526 H   0  0  0  0  0  0  0  0  0  0  0  0
    3.8813    2.9539   -1.4660 H   0  0  0  0  0  0  0  0  0  0  0  0
    5.0379   -1.9936    3.2176 H   0  0  0  0  0  0  0  0  0  0  0  0
    7.4894   -2.2078    3.4299 H   0  0  0  0  0  0  0  0  0  0  0  0
    8.9840   -0.9346    1.9242 H   0  0  0  0  0  0  0  0  0  0  0  0
    8.0627    0.5524    0.2225 H   0  0  0  0  0  0  0  0  0  0  0  0
   -1.7050   -1.8628   -2.3407 H   0  0  0  0  0  0  0  0  0  0  0  0
   -2.1277   -1.1023   -3.9142 H   0  0  0  0  0  0  0  0  0  0  0  0
   -1.1421   -0.1780   -2.7194 H   0  0  0  0  0  0  0  0  0  0  0  0
   -5.1976   -2.5639   -2.4089 H   0  0  0  0  0  0  0  0  0  0  0  0
   -4.3864   -3.1029   -0.8832 H   0  0  0  0  0  0  0  0  0  0  0  0
   -6.0844   -3.5804   -1.2120 H   0  0  0  0  0  0  0  0  0  0  0  0
  1  2  1  0
  2  3  2  0
  3  4  1  0
  4  5  2  0
  5  6  1  0
  6  7  2  0
  7  8  1  0
  8  9  1  0
  9 10  2  0
 10 11  1  0
 11 12  2  0
 12 13  1  0
 11 14  1  0
 14 15  2  0
 15 16  1  0
 16 17  1  0
 17 18  1  0
 18 19  1  0
 19 20  2  0
 20 21  1  0
 21 22  2  0
 22 23  1  0
 23 24  2  0
 24 25  1  0
 25 26  2  0
 26 27  1  0
 27 28  2  0
 28 29  1  0
 29 30  2  0
 29 31  1  0
  8 32  1  0
 32 33  2  0
 32 34  1  0
  6 35  1  0
  7  2  1  0
 13  9  1  0
 20 15  1  0
 28 19  1  0
 27 22  1  0
  1 36  1  0
  1 37  1  0
  1 38  1  0
  3 39  1  0
  4 40  1  0
  5 41  1  0
 12 42  1  0
 14 43  1  0
 16 44  1  0
 16 45  1  0
 17 46  1  0
 17 47  1  0
 18 48  1  0
 18 49  1  0
 23 50  1  0
 24 51  1  0
 25 52  1  0
 26 53  1  0
 34 54  1  0
 34 55  1  0
 34 56  1  0
 35 57  1  0
 35 58  1  0
 35 59  1  0
M  CHG  1  31  -1
M  END
$$$$
