
     RDKit          3D

 59 63  0  0  0  0  0  0  0  0999 V2000
    4.5328    2.7113    0.7484 C   0  0  0  0  0  0  0  0  0  0  0  0
    5.4336    1.8069   -0.0484 C   0  0  0  0  0  0  0  0  0  0  0  0
    6.6140    2.3215   -0.6060 C   0  0  0  0  0  0  0  0  0  0  0  0
    7.4587    1.5012   -1.3535 C   0  0  0  0  0  0  0  0  0  0  0  0
    7.1303    0.1624   -1.5659 C   0  0  0  0  0  0  0  0  0  0  0  0
    5.9422   -0.3698   -1.0421 C   0  0  0  0  0  0  0  0  0  0  0  0
    5.0895    0.4542   -0.2731 C   0  0  0  0  0  0  0  0  0  0  0  0
    3.8720   -0.0823    0.2752 N   0  0  0  0  0  0  0  0  0  0  0  0
    2.6221    0.2138   -0.3774 C   0  0  0  0  0  0  0  0  0  0  0  0
    1.4204    0.1397    0.2354 N   0  0  0  0  0  0  0  0  0  0  0  0
    0.4041    0.4977   -0.5938 C   0  0  0  0  0  0  0  0  0  0  0  0
    0.7971    0.9098   -1.8665 C   0  0  0  0  0  0  0  0  0  0  0  0
    2.4704    0.7769   -1.9584 S   0  0  0  0  0  0  0  0  0  0  0  0
   -0.9848    0.5544   -0.1105 C   0  0  0  0  0  0  0  0  0  0  0  0
   -2.0118   -0.1451   -0.6421 C   0  0  0  0  0  0  0  0  0  0  0  0
   -1.7792   -1.1633   -1.7415 C   0  0  0  0  0  0  0  0  0  0  0  0
   -3.0790   -1.5277   -2.4552 C   0  0  0  0  0  0  0  0  0  0  0  0
   -4.1371   -1.9923   -1.4562 C   0  0  0  0  0  0  0  0  0  0  0  0
   -4.4039   -0.9396   -0.3972 C   0  0  0  0  0  0  0  0  0  0  0  0
   -3.3679   -0.0540   -0.0201 C   0  0  0  0  0  0  0  0  0  0  0  0
   -3.6141    0.9056    0.9106 N   0  0  0  0  0  0  0  0  0  0  0  0
   -4.8108    1.0414    1.5299 C   0  0  0  0  0  0  0  0  0  0  0  0
   -4.9773    2.0521    2.4839 C   0  0  0  0  0  0  0  0  0  0  0  0
   -6.1899    2.1859    3.1608 C   0  0  0  0  0  0  0  0  0  0  0  0
   -7.2381    1.3048    2.8952 C   0  0  0  0  0  0  0  0  0  0  0  0
   -7.0839    0.2925    1.9437 C   0  0  0  0  0  0  0  0  0  0  0  0
   -5.8708    0.1553    1.2311 C   0  0  0  0  0  0  0  0  0  0  0  0
   -5.6630   -0.8516    0.2537 C   0  0  0  0  0  0  0  0  0  0  0  0
   -6.7407   -1.8081   -0.0896 C   0  0  0  0  0  0  0  0  0  0  0  0
   -7.8596   -1.3903   -0.4889 O   0  0  0  0  0  0  0  0  0  0  0  0
   -6.5150   -3.1762    0.0017 O   0  0  0  0  0  0  0  0  0  0  0  0
    3.9459   -0.8837    1.4729 C   0  0  0  0  0  0  0  0  0  0  0  0
    4.9337   -0.7594    2.2473 O   0  0  0  0  0  0  0  0  0  0  0  0
    2.8805   -1.8764    1.8257 C   0  0  0  0  0  0  0  0  0  0  0  0
    5.6042   -1.8158   -1.2836 C   0  0  0  0  0  0  0  0  0  0  0  0
    3.6470    2.9849    0.1381 H   0  0  0  0  0  0  0  0  0  0  0  0
    4.1951    2.2004    1.6745 H   0  0  0  0  0  0  0  0  0  0  0  0
    5.0579    3.6429    1.0487 H   0  0  0  0  0  0  0  0  0  0  0  0
    6.8858    3.3593   -0.4576 H   0  0  0  0  0  0  0  0  0  0  0  0
    8.3721    1.9051   -1.7708 H   0  0  0  0  0  0  0  0  0  0  0  0
    7.8020   -0.4574   -2.1468 H   0  0  0  0  0  0  0  0  0  0  0  0
    0.1479    1.2810   -2.6484 H   0  0  0  0  0  0  0  0  0  0  0  0
   -1.1426    1.1528    0.7779 H   0  0  0  0  0  0  0  0  0  0  0  0
   -1.3315   -2.0781   -1.2958 H   0  0  0  0  0  0  0  0  0  0  0  0
   -1.0823   -0.7792   -2.5110 H   0  0  0  0  0  0  0  0  0  0  0  0
   -3.4576   -0.6442   -3.0161 H   0  0  0  0  0  0  0  0  0  0  0  0
   -2.8813   -2.3406   -3.1872 H   0  0  0  0  0  0  0  0  0  0  0  0
   -3.8011   -2.9292   -0.9613 H   0  0  0  0  0  0  0  0  0  0  0  0
   -5.0583   -2.2130   -2.0360 H   0  0  0  0  0  0  0  0  0  0  0  0
   -4.1635    2.7311    2.7075 H   0  0  0  0  0  0  0  0  0  0  0  0
   -6.3138    2.9670    3.8996 H   0  0  0  0  0  0  0  0  0  0  0  0
   -8.1729    1.4029    3.4322 H   0  0  0  0  0  0  0  0  0  0  0  0
   -7.9154   -0.3798    1.7867 H   0  0  0  0  0  0  0  0  0  0  0  0
    2.4693   -2.3417    0.9054 H   0  0  0  0  0  0  0  0  0  0  0  0
    3.3050   -2.6826    2.4606 H   0  0  0  0  0  0  0  0  0  0  0  0
    2.0681   -1.3710    2.3877 H   0  0  0  0  0  0  0  0  0  0  0  0
    5.7564   -2.3942   -0.3486 H   0  0  0  0  0  0  0  0  0  0  0  0
    4.5460   -1.9137   -1.6058 H   0  0  0  0  0  0  0  0  0  0  0  0
    6.2429   -2.2548   -2.0794 H   0  0  0  0  0  0  0  0  0  0  0  0
  1  2  1  0
  2  3  2  0
  3  4  1  0
  4  5  2  0
  5  6  1  0
  6  7  2  0
  7  8  1  0
  8  9  1  0
  9 10  2  0
 10 11  1  0
 11 12  2  0
 12 13  1  0
 11 14  1  0
 14 15  2  0
 15 16  1  0
 16 17  1  0
 17 18  1  0
 18 19  1  0
 19 20  2  0
 20 21  1  0
 21 22  2  0
 22 23  1  0
 23 24  2  0
 24 25  1  0
 25 26  2  0
 26 27  1  0
 27 28  2  0
 28 29  1  0
 29 30  2  0
 29 31  1  0
  8 32  1  0
 32 33  2  0
 32 34  1  0
  6 35  1  0
  7  2  1  0
 13  9  1  0
 20 15  1  0
 28 19  1  0
 27 22  1  0
  1 36  1  0
  1 37  1  0
  1 38  1  0
  3 39  1  0
  4 40  1  0
  5 41  1  0
 12 42  1  0
 14 43  1  0
 16 44  1  0
 16 45  1  0
 17 46  1  0
 17 47  1  0
 18 48  1  0
 18 49  1  0
 23 50  1  0
 24 51  1  0
 25 52  1  0
 26 53  1  0
 34 54  1  0
 34 55  1  0
 34 56  1  0
 35 57  1  0
 35 58  1  0
 35 59  1  0
M  CHG  1  31  -1
M  END
$$$$
