
     RDKit          3D

 59 63  0  0  0  0  0  0  0  0999 V2000
   -5.8931   -0.4572    1.7344 C   0  0  0  0  0  0  0  0  0  0  0  0
   -6.0113    0.3190    0.4509 C   0  0  0  0  0  0  0  0  0  0  0  0
   -7.2269    0.9394    0.1246 C   0  0  0  0  0  0  0  0  0  0  0  0
   -7.3544    1.6646   -1.0599 C   0  0  0  0  0  0  0  0  0  0  0  0
   -6.2768    1.7687   -1.9392 C   0  0  0  0  0  0  0  0  0  0  0  0
   -5.0590    1.1344   -1.6497 C   0  0  0  0  0  0  0  0  0  0  0  0
   -4.9205    0.4106   -0.4432 C   0  0  0  0  0  0  0  0  0  0  0  0
   -3.6713   -0.2281   -0.1231 N   0  0  0  0  0  0  0  0  0  0  0  0
   -2.5803    0.5771    0.3637 C   0  0  0  0  0  0  0  0  0  0  0  0
   -1.2806    0.2206    0.2648 N   0  0  0  0  0  0  0  0  0  0  0  0
   -0.4483    1.1795    0.7598 C   0  0  0  0  0  0  0  0  0  0  0  0
   -1.0903    2.3251    1.2255 C   0  0  0  0  0  0  0  0  0  0  0  0
   -2.7461    2.1135    1.0330 S   0  0  0  0  0  0  0  0  0  0  0  0
    1.0293    1.0802    0.7248 C   0  0  0  0  0  0  0  0  0  0  0  0
    1.7502   -0.0623    0.6365 C   0  0  0  0  0  0  0  0  0  0  0  0
    1.0800   -1.4202    0.6439 C   0  0  0  0  0  0  0  0  0  0  0  0
    2.0494   -2.5383    1.0214 C   0  0  0  0  0  0  0  0  0  0  0  0
    3.2955   -2.4980    0.1407 C   0  0  0  0  0  0  0  0  0  0  0  0
    4.0024   -1.1621    0.2568 C   0  0  0  0  0  0  0  0  0  0  0  0
    3.2361    0.0085    0.4685 C   0  0  0  0  0  0  0  0  0  0  0  0
    3.8585    1.2172    0.5038 N   0  0  0  0  0  0  0  0  0  0  0  0
    5.1937    1.3646    0.3308 C   0  0  0  0  0  0  0  0  0  0  0  0
    5.7571    2.6447    0.3879 C   0  0  0  0  0  0  0  0  0  0  0  0
    7.1311    2.8154    0.2129 C   0  0  0  0  0  0  0  0  0  0  0  0
    7.9487    1.7084   -0.0178 C   0  0  0  0  0  0  0  0  0  0  0  0
    7.3967    0.4255   -0.0780 C   0  0  0  0  0  0  0  0  0  0  0  0
    6.0068    0.2352    0.0897 C   0  0  0  0  0  0  0  0  0  0  0  0
    5.4002   -1.0435    0.0407 C   0  0  0  0  0  0  0  0  0  0  0  0
    6.2144   -2.2415   -0.2526 C   0  0  0  0  0  0  0  0  0  0  0  0
    6.7297   -2.3912   -1.3916 O   0  0  0  0  0  0  0  0  0  0  0  0
    6.4362   -3.1948    0.7334 O   0  0  0  0  0  0  0  0  0  0  0  0
   -3.5508   -1.6511   -0.3248 C   0  0  0  0  0  0  0  0  0  0  0  0
   -4.3010   -2.2293   -1.1575 O   0  0  0  0  0  0  0  0  0  0  0  0
   -2.5610   -2.4758    0.4382 C   0  0  0  0  0  0  0  0  0  0  0  0
   -3.9074    1.2656   -2.6092 C   0  0  0  0  0  0  0  0  0  0  0  0
   -4.9521   -0.1895    2.2596 H   0  0  0  0  0  0  0  0  0  0  0  0
   -5.8908   -1.5446    1.5121 H   0  0  0  0  0  0  0  0  0  0  0  0
   -6.7384   -0.2376    2.4208 H   0  0  0  0  0  0  0  0  0  0  0  0
   -8.0773    0.8689    0.7914 H   0  0  0  0  0  0  0  0  0  0  0  0
   -8.2929    2.1488   -1.2974 H   0  0  0  0  0  0  0  0  0  0  0  0
   -6.3961    2.3409   -2.8510 H   0  0  0  0  0  0  0  0  0  0  0  0
   -0.6090    3.2050    1.6317 H   0  0  0  0  0  0  0  0  0  0  0  0
    1.5510    2.0281    0.7753 H   0  0  0  0  0  0  0  0  0  0  0  0
    0.2590   -1.4401    1.3920 H   0  0  0  0  0  0  0  0  0  0  0  0
    0.6618   -1.6218   -0.3658 H   0  0  0  0  0  0  0  0  0  0  0  0
    2.3442   -2.4339    2.0894 H   0  0  0  0  0  0  0  0  0  0  0  0
    1.5422   -3.5199    0.8994 H   0  0  0  0  0  0  0  0  0  0  0  0
    3.0129   -2.6675   -0.9208 H   0  0  0  0  0  0  0  0  0  0  0  0
    3.9480   -3.3348    0.4595 H   0  0  0  0  0  0  0  0  0  0  0  0
    5.1303    3.5093    0.5692 H   0  0  0  0  0  0  0  0  0  0  0  0
    7.5632    3.8067    0.2588 H   0  0  0  0  0  0  0  0  0  0  0  0
    9.0147    1.8440   -0.1480 H   0  0  0  0  0  0  0  0  0  0  0  0
    8.0656   -0.4075   -0.2478 H   0  0  0  0  0  0  0  0  0  0  0  0
   -2.3659   -2.0270    1.4345 H   0  0  0  0  0  0  0  0  0  0  0  0
   -1.6163   -2.5472   -0.1373 H   0  0  0  0  0  0  0  0  0  0  0  0
   -2.9610   -3.4999    0.5941 H   0  0  0  0  0  0  0  0  0  0  0  0
   -3.4119    0.2826   -2.7542 H   0  0  0  0  0  0  0  0  0  0  0  0
   -4.2487    1.6217   -3.6045 H   0  0  0  0  0  0  0  0  0  0  0  0
   -3.1696    1.9909   -2.2073 H   0  0  0  0  0  0  0  0  0  0  0  0
  1  2  1  0
  2  3  2  0
  3  4  1  0
  4  5  2  0
  5  6  1  0
  6  7  2  0
  7  8  1  0
  8  9  1  0
  9 10  2  0
 10 11  1  0
 11 12  2  0
 12 13  1  0
 11 14  1  0
 14 15  2  0
 15 16  1  0
 16 17  1  0
 17 18  1  0
 18 19  1  0
 19 20  2  0
 20 21  1  0
 21 22  2  0
 22 23  1  0
 23 24  2  0
 24 25  1  0
 25 26  2  0
 26 27  1  0
 27 28  2  0
 28 29  1  0
 29 30  2  0
 29 31  1  0
  8 32  1  0
 32 33  2  0
 32 34  1  0
  6 35  1  0
  7  2  1  0
 13  9  1  0
 20 15  1  0
 28 19  1  0
 27 22  1  0
  1 36  1  0
  1 37  1  0
  1 38  1  0
  3 39  1  0
  4 40  1  0
  5 41  1  0
 12 42  1  0
 14 43  1  0
 16 44  1  0
 16 45  1  0
 17 46  1  0
 17 47  1  0
 18 48  1  0
 18 49  1  0
 23 50  1  0
 24 51  1  0
 25 52  1  0
 26 53  1  0
 34 54  1  0
 34 55  1  0
 34 56  1  0
 35 57  1  0
 35 58  1  0
 35 59  1  0
M  CHG  1  31  -1
M  END
$$$$
