
     RDKit          3D

 59 63  0  0  0  0  0  0  0  0999 V2000
   -4.6476   -2.8135   -0.6475 C   0  0  0  0  0  0  0  0  0  0  0  0
   -4.4984   -1.4659   -1.3001 C   0  0  0  0  0  0  0  0  0  0  0  0
   -4.6247   -1.3548   -2.6933 C   0  0  0  0  0  0  0  0  0  0  0  0
   -4.4816   -0.1171   -3.3195 C   0  0  0  0  0  0  0  0  0  0  0  0
   -4.2249    1.0265   -2.5640 C   0  0  0  0  0  0  0  0  0  0  0  0
   -4.1250    0.9485   -1.1665 C   0  0  0  0  0  0  0  0  0  0  0  0
   -4.2563   -0.3067   -0.5274 C   0  0  0  0  0  0  0  0  0  0  0  0
   -4.1324   -0.4067    0.9028 N   0  0  0  0  0  0  0  0  0  0  0  0
   -2.8258   -0.2760    1.4923 C   0  0  0  0  0  0  0  0  0  0  0  0
   -1.6839   -0.4801    0.7989 N   0  0  0  0  0  0  0  0  0  0  0  0
   -0.5817   -0.1905    1.5399 C   0  0  0  0  0  0  0  0  0  0  0  0
   -0.8384    0.2312    2.8435 C   0  0  0  0  0  0  0  0  0  0  0  0
   -2.5059    0.2801    3.0500 S   0  0  0  0  0  0  0  0  0  0  0  0
    0.7716   -0.3995    1.0021 C   0  0  0  0  0  0  0  0  0  0  0  0
    1.6862    0.5809    0.8345 C   0  0  0  0  0  0  0  0  0  0  0  0
    1.3342    2.0315    1.1015 C   0  0  0  0  0  0  0  0  0  0  0  0
    2.5840    2.8983    1.2378 C   0  0  0  0  0  0  0  0  0  0  0  0
    3.4924    2.7399    0.0200 C   0  0  0  0  0  0  0  0  0  0  0  0
    3.8874    1.2913   -0.1957 C   0  0  0  0  0  0  0  0  0  0  0  0
    3.0051    0.2625    0.2078 C   0  0  0  0  0  0  0  0  0  0  0  0
    3.3690   -1.0360    0.0373 N   0  0  0  0  0  0  0  0  0  0  0  0
    4.5390   -1.4037   -0.5370 C   0  0  0  0  0  0  0  0  0  0  0  0
    4.8326   -2.7646   -0.6826 C   0  0  0  0  0  0  0  0  0  0  0  0
    6.0150   -3.1651   -1.3052 C   0  0  0  0  0  0  0  0  0  0  0  0
    6.9049   -2.2087   -1.7941 C   0  0  0  0  0  0  0  0  0  0  0  0
    6.6230   -0.8467   -1.6534 C   0  0  0  0  0  0  0  0  0  0  0  0
    5.4412   -0.4212   -1.0051 C   0  0  0  0  0  0  0  0  0  0  0  0
    5.1088    0.9471   -0.8331 C   0  0  0  0  0  0  0  0  0  0  0  0
    6.0181    2.0137   -1.3127 C   0  0  0  0  0  0  0  0  0  0  0  0
    7.2111    2.0612   -0.9121 O   0  0  0  0  0  0  0  0  0  0  0  0
    5.5523    2.9863   -2.1890 O   0  0  0  0  0  0  0  0  0  0  0  0
   -5.3214   -0.6103    1.6909 C   0  0  0  0  0  0  0  0  0  0  0  0
   -6.4233   -0.1478    1.2887 O   0  0  0  0  0  0  0  0  0  0  0  0
   -5.2918   -1.3864    2.9711 C   0  0  0  0  0  0  0  0  0  0  0  0
   -3.8400    2.1965   -0.3753 C   0  0  0  0  0  0  0  0  0  0  0  0
   -5.6428   -2.8827   -0.1610 H   0  0  0  0  0  0  0  0  0  0  0  0
   -3.8552   -2.9616    0.1164 H   0  0  0  0  0  0  0  0  0  0  0  0
   -4.5580   -3.6349   -1.3899 H   0  0  0  0  0  0  0  0  0  0  0  0
   -4.8251   -2.2299   -3.2992 H   0  0  0  0  0  0  0  0  0  0  0  0
   -4.5683   -0.0441   -4.3960 H   0  0  0  0  0  0  0  0  0  0  0  0
   -4.1106    1.9765   -3.0714 H   0  0  0  0  0  0  0  0  0  0  0  0
   -0.0989    0.4762    3.5944 H   0  0  0  0  0  0  0  0  0  0  0  0
    0.9865   -1.4037    0.6593 H   0  0  0  0  0  0  0  0  0  0  0  0
    0.7568    2.1422    2.0399 H   0  0  0  0  0  0  0  0  0  0  0  0
    0.7089    2.4104    0.2640 H   0  0  0  0  0  0  0  0  0  0  0  0
    2.2834    3.9639    1.3372 H   0  0  0  0  0  0  0  0  0  0  0  0
    3.1397    2.6103    2.1580 H   0  0  0  0  0  0  0  0  0  0  0  0
    4.3880    3.3724    0.1969 H   0  0  0  0  0  0  0  0  0  0  0  0
    2.9723    3.1142   -0.8882 H   0  0  0  0  0  0  0  0  0  0  0  0
    4.1400   -3.5141   -0.3196 H   0  0  0  0  0  0  0  0  0  0  0  0
    6.2371   -4.2184   -1.4181 H   0  0  0  0  0  0  0  0  0  0  0  0
    7.8148   -2.5232   -2.2889 H   0  0  0  0  0  0  0  0  0  0  0  0
    7.3308   -0.1424   -2.0665 H   0  0  0  0  0  0  0  0  0  0  0  0
   -5.2097   -0.6894    3.8304 H   0  0  0  0  0  0  0  0  0  0  0  0
   -6.2269   -1.9760    3.0762 H   0  0  0  0  0  0  0  0  0  0  0  0
   -4.4353   -2.0926    2.9771 H   0  0  0  0  0  0  0  0  0  0  0  0
   -4.0740    3.1090   -0.9640 H   0  0  0  0  0  0  0  0  0  0  0  0
   -4.4601    2.2224    0.5454 H   0  0  0  0  0  0  0  0  0  0  0  0
   -2.7662    2.2213   -0.0945 H   0  0  0  0  0  0  0  0  0  0  0  0
  1  2  1  0
  2  3  2  0
  3  4  1  0
  4  5  2  0
  5  6  1  0
  6  7  2  0
  7  8  1  0
  8  9  1  0
  9 10  2  0
 10 11  1  0
 11 12  2  0
 12 13  1  0
 11 14  1  0
 14 15  2  0
 15 16  1  0
 16 17  1  0
 17 18  1  0
 18 19  1  0
 19 20  2  0
 20 21  1  0
 21 22  2  0
 22 23  1  0
 23 24  2  0
 24 25  1  0
 25 26  2  0
 26 27  1  0
 27 28  2  0
 28 29  1  0
 29 30  2  0
 29 31  1  0
  8 32  1  0
 32 33  2  0
 32 34  1  0
  6 35  1  0
  7  2  1  0
 13  9  1  0
 20 15  1  0
 28 19  1  0
 27 22  1  0
  1 36  1  0
  1 37  1  0
  1 38  1  0
  3 39  1  0
  4 40  1  0
  5 41  1  0
 12 42  1  0
 14 43  1  0
 16 44  1  0
 16 45  1  0
 17 46  1  0
 17 47  1  0
 18 48  1  0
 18 49  1  0
 23 50  1  0
 24 51  1  0
 25 52  1  0
 26 53  1  0
 34 54  1  0
 34 55  1  0
 34 56  1  0
 35 57  1  0
 35 58  1  0
 35 59  1  0
M  CHG  1  31  -1
M  END
$$$$
