
     RDKit          3D

 59 63  0  0  0  0  0  0  0  0999 V2000
    5.7589   -1.5033    1.4117 C   0  0  0  0  0  0  0  0  0  0  0  0
    6.0609   -0.3572    0.4849 C   0  0  0  0  0  0  0  0  0  0  0  0
    7.3224   -0.2701   -0.1235 C   0  0  0  0  0  0  0  0  0  0  0  0
    7.6192    0.7843   -0.9868 C   0  0  0  0  0  0  0  0  0  0  0  0
    6.6675    1.7709   -1.2436 C   0  0  0  0  0  0  0  0  0  0  0  0
    5.4080    1.7218   -0.6267 C   0  0  0  0  0  0  0  0  0  0  0  0
    5.0977    0.6471    0.2379 C   0  0  0  0  0  0  0  0  0  0  0  0
    3.8031    0.5722    0.8617 N   0  0  0  0  0  0  0  0  0  0  0  0
    2.6801    0.1089    0.0869 C   0  0  0  0  0  0  0  0  0  0  0  0
    1.3933    0.3788    0.3962 N   0  0  0  0  0  0  0  0  0  0  0  0
    0.5272   -0.1469   -0.5113 C   0  0  0  0  0  0  0  0  0  0  0  0
    1.1309   -0.8049   -1.5848 C   0  0  0  0  0  0  0  0  0  0  0  0
    2.7954   -0.7520   -1.3562 S   0  0  0  0  0  0  0  0  0  0  0  0
   -0.9245    0.0892   -0.3885 C   0  0  0  0  0  0  0  0  0  0  0  0
   -1.8901   -0.8313   -0.6131 C   0  0  0  0  0  0  0  0  0  0  0  0
   -1.5529   -2.2677   -0.9524 C   0  0  0  0  0  0  0  0  0  0  0  0
   -2.6501   -3.2149   -0.4749 C   0  0  0  0  0  0  0  0  0  0  0  0
   -4.0007   -2.8238   -1.0733 C   0  0  0  0  0  0  0  0  0  0  0  0
   -4.3584   -1.3794   -0.7737 C   0  0  0  0  0  0  0  0  0  0  0  0
   -3.3299   -0.4335   -0.5496 C   0  0  0  0  0  0  0  0  0  0  0  0
   -3.6571    0.8556   -0.2690 N   0  0  0  0  0  0  0  0  0  0  0  0
   -4.9364    1.2962   -0.2131 C   0  0  0  0  0  0  0  0  0  0  0  0
   -5.1851    2.6427    0.0776 C   0  0  0  0  0  0  0  0  0  0  0  0
   -6.4939    3.1249    0.1052 C   0  0  0  0  0  0  0  0  0  0  0  0
   -7.5596    2.2670   -0.1673 C   0  0  0  0  0  0  0  0  0  0  0  0
   -7.3233    0.9203   -0.4581 C   0  0  0  0  0  0  0  0  0  0  0  0
   -6.0059    0.4084   -0.4684 C   0  0  0  0  0  0  0  0  0  0  0  0
   -5.7120   -0.9485   -0.7558 C   0  0  0  0  0  0  0  0  0  0  0  0
   -6.8022   -1.9131   -1.0311 C   0  0  0  0  0  0  0  0  0  0  0  0
   -6.8095   -2.5737   -2.1033 O   0  0  0  0  0  0  0  0  0  0  0  0
   -7.8143   -2.1107   -0.0996 O   0  0  0  0  0  0  0  0  0  0  0  0
    3.6731    0.9845    2.2384 C   0  0  0  0  0  0  0  0  0  0  0  0
    4.5201    1.7755    2.7359 O   0  0  0  0  0  0  0  0  0  0  0  0
    2.5579    0.4905    3.1086 C   0  0  0  0  0  0  0  0  0  0  0  0
    4.3934    2.7925   -0.9236 C   0  0  0  0  0  0  0  0  0  0  0  0
    4.7681   -1.9419    1.1689 H   0  0  0  0  0  0  0  0  0  0  0  0
    6.5179   -2.3093    1.3218 H   0  0  0  0  0  0  0  0  0  0  0  0
    5.7506   -1.1405    2.4607 H   0  0  0  0  0  0  0  0  0  0  0  0
    8.0773   -1.0238    0.0641 H   0  0  0  0  0  0  0  0  0  0  0  0
    8.5914    0.8368   -1.4597 H   0  0  0  0  0  0  0  0  0  0  0  0
    6.9172    2.5781   -1.9212 H   0  0  0  0  0  0  0  0  0  0  0  0
    0.6308   -1.2361   -2.4404 H   0  0  0  0  0  0  0  0  0  0  0  0
   -1.2002    1.0786   -0.0463 H   0  0  0  0  0  0  0  0  0  0  0  0
   -0.6080   -2.5822   -0.4597 H   0  0  0  0  0  0  0  0  0  0  0  0
   -1.4351   -2.3667   -2.0528 H   0  0  0  0  0  0  0  0  0  0  0  0
   -2.3990   -4.2536   -0.7809 H   0  0  0  0  0  0  0  0  0  0  0  0
   -2.7109   -3.1882    0.6359 H   0  0  0  0  0  0  0  0  0  0  0  0
   -4.7601   -3.5126   -0.6455 H   0  0  0  0  0  0  0  0  0  0  0  0
   -3.9770   -2.9695   -2.1750 H   0  0  0  0  0  0  0  0  0  0  0  0
   -4.3626    3.3192    0.2759 H   0  0  0  0  0  0  0  0  0  0  0  0
   -6.6819    4.1673    0.3281 H   0  0  0  0  0  0  0  0  0  0  0  0
   -8.5729    2.6476   -0.1586 H   0  0  0  0  0  0  0  0  0  0  0  0
   -8.1771    0.2978   -0.6849 H   0  0  0  0  0  0  0  0  0  0  0  0
    1.6668    1.1393    2.9808 H   0  0  0  0  0  0  0  0  0  0  0  0
    2.8663    0.5148    4.1752 H   0  0  0  0  0  0  0  0  0  0  0  0
    2.3019   -0.5575    2.8468 H   0  0  0  0  0  0  0  0  0  0  0  0
    4.8672    3.6793   -1.3957 H   0  0  0  0  0  0  0  0  0  0  0  0
    3.6226    2.3926   -1.6150 H   0  0  0  0  0  0  0  0  0  0  0  0
    3.9036    3.1302    0.0138 H   0  0  0  0  0  0  0  0  0  0  0  0
  1  2  1  0
  2  3  2  0
  3  4  1  0
  4  5  2  0
  5  6  1  0
  6  7  2  0
  7  8  1  0
  8  9  1  0
  9 10  2  0
 10 11  1  0
 11 12  2  0
 12 13  1  0
 11 14  1  0
 14 15  2  0
 15 16  1  0
 16 17  1  0
 17 18  1  0
 18 19  1  0
 19 20  2  0
 20 21  1  0
 21 22  2  0
 22 23  1  0
 23 24  2  0
 24 25  1  0
 25 26  2  0
 26 27  1  0
 27 28  2  0
 28 29  1  0
 29 30  2  0
 29 31  1  0
  8 32  1  0
 32 33  2  0
 32 34  1  0
  6 35  1  0
  7  2  1  0
 13  9  1  0
 20 15  1  0
 28 19  1  0
 27 22  1  0
  1 36  1  0
  1 37  1  0
  1 38  1  0
  3 39  1  0
  4 40  1  0
  5 41  1  0
 12 42  1  0
 14 43  1  0
 16 44  1  0
 16 45  1  0
 17 46  1  0
 17 47  1  0
 18 48  1  0
 18 49  1  0
 23 50  1  0
 24 51  1  0
 25 52  1  0
 26 53  1  0
 34 54  1  0
 34 55  1  0
 34 56  1  0
 35 57  1  0
 35 58  1  0
 35 59  1  0
M  CHG  1  31  -1
M  END
$$$$
