
     RDKit          3D

 66 70  0  0  0  0  0  0  0  0999 V2000
   -7.3798    2.2914   -1.1585 C   0  0  0  0  0  0  0  0  0  0  0  0
   -7.6021    0.8607   -0.6113 C   0  0  0  0  0  0  0  0  0  0  0  0
   -8.0915   -0.0181   -1.7830 C   0  0  0  0  0  0  0  0  0  0  0  0
   -8.7045    0.9375    0.4672 C   0  0  0  0  0  0  0  0  0  0  0  0
   -6.3276    0.2414   -0.0010 C   0  0  0  0  0  0  0  0  0  0  0  0
   -6.3751   -1.0628    0.5386 C   0  0  0  0  0  0  0  0  0  0  0  0
   -5.2408   -1.6550    1.0979 C   0  0  0  0  0  0  0  0  0  0  0  0
   -4.0245   -0.9714    1.1364 C   0  0  0  0  0  0  0  0  0  0  0  0
   -3.9582    0.3294    0.6090 C   0  0  0  0  0  0  0  0  0  0  0  0
   -5.0908    0.9264    0.0478 C   0  0  0  0  0  0  0  0  0  0  0  0
   -2.9183   -1.6187    1.7118 O   0  0  0  0  0  0  0  0  0  0  0  0
   -1.5853   -1.1091    1.7465 C   0  0  0  0  0  0  0  0  0  0  0  0
   -0.9188   -1.2454    0.3760 C   0  0  0  0  0  0  0  0  0  0  0  0
    0.4301   -0.6809    0.4115 N   0  0  0  0  0  0  0  0  0  0  0  0
    0.7563    0.5996    0.1147 C   0  0  0  0  0  0  0  0  0  0  0  0
    2.1128    0.8115    0.3256 C   0  0  0  0  0  0  0  0  0  0  0  0
    2.6097   -0.3823    0.8230 C   0  0  0  0  0  0  0  0  0  0  0  0
    1.5614   -1.2697    0.8550 C   0  0  0  0  0  0  0  0  0  0  0  0
    1.7214   -2.5681    1.3490 C   0  0  0  0  0  0  0  0  0  0  0  0
    2.9929   -2.9445    1.8170 C   0  0  0  0  0  0  0  0  0  0  0  0
    4.0634   -2.0255    1.7987 C   0  0  0  0  0  0  0  0  0  0  0  0
    3.8760   -0.7235    1.3041 C   0  0  0  0  0  0  0  0  0  0  0  0
    2.8104    2.1039    0.2057 C   0  0  0  0  0  0  0  0  0  0  0  0
    3.9881    2.2843   -0.4288 C   0  0  0  0  0  0  0  0  0  0  0  0
    4.7201    3.5605   -0.3040 C   0  0  0  0  0  0  0  0  0  0  0  0
    4.1933    4.5596    0.2551 O   0  0  0  0  0  0  0  0  0  0  0  0
    6.0599    3.6638   -0.7953 N   0  0  0  0  0  0  0  0  0  0  0  0
    6.6748    2.6967   -1.4085 C   0  0  0  0  0  0  0  0  0  0  0  0
    6.0115    1.4403   -1.6741 N   0  0  0  0  0  0  0  0  0  0  0  0
    4.6376    1.2606   -1.2791 C   0  0  0  0  0  0  0  0  0  0  0  0
    3.9889    0.2641   -1.7010 O   0  0  0  0  0  0  0  0  0  0  0  0
    6.7426    0.3206   -2.2832 C   0  0  0  0  0  0  0  0  0  0  0  0
    7.0264   -0.7260   -1.2522 C   0  0  0  0  0  0  0  0  0  0  0  0
    7.8647   -0.5819   -0.1657 C   0  0  0  0  0  0  0  0  0  0  0  0
    7.7967   -1.7791    0.5138 C   0  0  0  0  0  0  0  0  0  0  0  0
    6.9240   -2.5762   -0.1996 C   0  0  0  0  0  0  0  0  0  0  0  0
    6.4798   -1.9195   -1.2464 O   0  0  0  0  0  0  0  0  0  0  0  0
    7.9893    2.8962   -1.8150 O   0  0  0  0  0  0  0  0  0  0  0  0
   -7.0591    2.9805   -0.3475 H   0  0  0  0  0  0  0  0  0  0  0  0
   -6.6159    2.2925   -1.9660 H   0  0  0  0  0  0  0  0  0  0  0  0
   -8.3201    2.6994   -1.5893 H   0  0  0  0  0  0  0  0  0  0  0  0
   -7.2930   -0.1191   -2.5498 H   0  0  0  0  0  0  0  0  0  0  0  0
   -8.3761   -1.0348   -1.4402 H   0  0  0  0  0  0  0  0  0  0  0  0
   -8.9857    0.4316   -2.2668 H   0  0  0  0  0  0  0  0  0  0  0  0
   -9.6202    1.4202    0.0617 H   0  0  0  0  0  0  0  0  0  0  0  0
   -8.3524    1.5323    1.3378 H   0  0  0  0  0  0  0  0  0  0  0  0
   -8.9937   -0.0714    0.8285 H   0  0  0  0  0  0  0  0  0  0  0  0
   -7.2934   -1.6338    0.5307 H   0  0  0  0  0  0  0  0  0  0  0  0
   -5.3080   -2.6568    1.5035 H   0  0  0  0  0  0  0  0  0  0  0  0
   -3.0374    0.8948    0.6260 H   0  0  0  0  0  0  0  0  0  0  0  0
   -4.9759    1.9266   -0.3419 H   0  0  0  0  0  0  0  0  0  0  0  0
   -1.5769   -0.0544    2.0953 H   0  0  0  0  0  0  0  0  0  0  0  0
   -1.0066   -1.7040    2.4840 H   0  0  0  0  0  0  0  0  0  0  0  0
   -1.5192   -0.7199   -0.3965 H   0  0  0  0  0  0  0  0  0  0  0  0
   -0.8758   -2.3164    0.0841 H   0  0  0  0  0  0  0  0  0  0  0  0
    0.0471    1.3463   -0.2205 H   0  0  0  0  0  0  0  0  0  0  0  0
    0.8964   -3.2666    1.3850 H   0  0  0  0  0  0  0  0  0  0  0  0
    3.1484   -3.9424    2.2058 H   0  0  0  0  0  0  0  0  0  0  0  0
    5.0330   -2.3221    2.1767 H   0  0  0  0  0  0  0  0  0  0  0  0
    4.6907   -0.0114    1.3068 H   0  0  0  0  0  0  0  0  0  0  0  0
    2.3397    2.9417    0.7053 H   0  0  0  0  0  0  0  0  0  0  0  0
    6.1391   -0.1202   -3.1056 H   0  0  0  0  0  0  0  0  0  0  0  0
    7.6995    0.6542   -2.7360 H   0  0  0  0  0  0  0  0  0  0  0  0
    8.4463    0.2899    0.1035 H   0  0  0  0  0  0  0  0  0  0  0  0
    8.3181   -2.0399    1.4249 H   0  0  0  0  0  0  0  0  0  0  0  0
    6.6365   -3.5876    0.0542 H   0  0  0  0  0  0  0  0  0  0  0  0
  1  2  1  0
  2  3  1  0
  2  4  1  0
  2  5  1  0
  5  6  2  0
  6  7  1  0
  7  8  2  0
  8  9  1  0
  9 10  2  0
  8 11  1  0
 11 12  1  0
 12 13  1  0
 13 14  1  0
 14 15  1  0
 15 16  2  0
 16 17  1  0
 17 18  2  0
 18 19  1  0
 19 20  2  0
 20 21  1  0
 21 22  2  0
 16 23  1  0
 23 24  2  0
 24 25  1  0
 25 26  2  0
 25 27  1  0
 27 28  2  0
 28 29  1  0
 29 30  1  0
 30 31  2  0
 29 32  1  0
 32 33  1  0
 33 34  2  0
 34 35  1  0
 35 36  2  0
 36 37  1  0
 28 38  1  0
 10  5  1  0
 18 14  1  0
 22 17  1  0
 30 24  1  0
 37 33  1  0
  1 39  1  0
  1 40  1  0
  1 41  1  0
  3 42  1  0
  3 43  1  0
  3 44  1  0
  4 45  1  0
  4 46  1  0
  4 47  1  0
  6 48  1  0
  7 49  1  0
  9 50  1  0
 10 51  1  0
 12 52  1  0
 12 53  1  0
 13 54  1  0
 13 55  1  0
 15 56  1  0
 19 57  1  0
 20 58  1  0
 21 59  1  0
 22 60  1  0
 23 61  1  0
 32 62  1  0
 32 63  1  0
 34 64  1  0
 35 65  1  0
 36 66  1  0
M  CHG  1  38  -1
M  END
$$$$
