
     RDKit          3D

 66 70  0  0  0  0  0  0  0  0999 V2000
    8.4632    0.1925   -0.6038 C   0  0  0  0  0  0  0  0  0  0  0  0
    7.4057    0.2753    0.5184 C   0  0  0  0  0  0  0  0  0  0  0  0
    7.5887   -0.9156    1.4843 C   0  0  0  0  0  0  0  0  0  0  0  0
    7.6703    1.5737    1.3183 C   0  0  0  0  0  0  0  0  0  0  0  0
    5.9934    0.2232   -0.1006 C   0  0  0  0  0  0  0  0  0  0  0  0
    5.6055   -0.9029   -0.8603 C   0  0  0  0  0  0  0  0  0  0  0  0
    4.3350   -0.9859   -1.4354 C   0  0  0  0  0  0  0  0  0  0  0  0
    3.4110    0.0575   -1.2677 C   0  0  0  0  0  0  0  0  0  0  0  0
    3.7798    1.1774   -0.5208 C   0  0  0  0  0  0  0  0  0  0  0  0
    5.0494    1.2653    0.0567 C   0  0  0  0  0  0  0  0  0  0  0  0
    2.1237    0.0208   -1.8220 O   0  0  0  0  0  0  0  0  0  0  0  0
    1.6012   -1.0681   -2.5793 C   0  0  0  0  0  0  0  0  0  0  0  0
    0.1580   -0.7718   -2.9781 C   0  0  0  0  0  0  0  0  0  0  0  0
   -0.6777   -0.5947   -1.7894 N   0  0  0  0  0  0  0  0  0  0  0  0
   -0.9511    0.5864   -1.1851 C   0  0  0  0  0  0  0  0  0  0  0  0
   -1.7032    0.3769   -0.0361 C   0  0  0  0  0  0  0  0  0  0  0  0
   -1.8409   -0.9961    0.0803 C   0  0  0  0  0  0  0  0  0  0  0  0
   -1.2133   -1.5554   -1.0064 C   0  0  0  0  0  0  0  0  0  0  0  0
   -1.1365   -2.9421   -1.1688 C   0  0  0  0  0  0  0  0  0  0  0  0
   -1.7234   -3.7557   -0.1835 C   0  0  0  0  0  0  0  0  0  0  0  0
   -2.3541   -3.1783    0.9393 C   0  0  0  0  0  0  0  0  0  0  0  0
   -2.4088   -1.7815    1.0854 C   0  0  0  0  0  0  0  0  0  0  0  0
   -2.0882    1.4133    0.9376 C   0  0  0  0  0  0  0  0  0  0  0  0
   -3.3281    1.5742    1.4490 C   0  0  0  0  0  0  0  0  0  0  0  0
   -3.5645    2.5406    2.5421 C   0  0  0  0  0  0  0  0  0  0  0  0
   -2.6382    3.2851    2.9620 O   0  0  0  0  0  0  0  0  0  0  0  0
   -4.8558    2.6300    3.1509 N   0  0  0  0  0  0  0  0  0  0  0  0
   -5.8703    1.9034    2.7894 C   0  0  0  0  0  0  0  0  0  0  0  0
   -5.7583    0.9474    1.7127 N   0  0  0  0  0  0  0  0  0  0  0  0
   -4.5305    0.8552    0.9631 C   0  0  0  0  0  0  0  0  0  0  0  0
   -4.5070    0.2170   -0.1247 O   0  0  0  0  0  0  0  0  0  0  0  0
   -6.9290    0.1595    1.3069 C   0  0  0  0  0  0  0  0  0  0  0  0
   -7.7072    0.8966    0.2634 C   0  0  0  0  0  0  0  0  0  0  0  0
   -8.7497    1.7702    0.4982 C   0  0  0  0  0  0  0  0  0  0  0  0
   -9.1334    2.2295   -0.7433 C   0  0  0  0  0  0  0  0  0  0  0  0
   -8.3004    1.6122   -1.6549 C   0  0  0  0  0  0  0  0  0  0  0  0
   -7.4593    0.8256   -1.0238 O   0  0  0  0  0  0  0  0  0  0  0  0
   -7.0790    2.0663    3.4570 O   0  0  0  0  0  0  0  0  0  0  0  0
    9.4899    0.2713   -0.1849 H   0  0  0  0  0  0  0  0  0  0  0  0
    8.3187    1.0194   -1.3324 H   0  0  0  0  0  0  0  0  0  0  0  0
    8.4020   -0.7704   -1.1527 H   0  0  0  0  0  0  0  0  0  0  0  0
    8.5850   -0.8753    1.9758 H   0  0  0  0  0  0  0  0  0  0  0  0
    7.5204   -1.8875    0.9524 H   0  0  0  0  0  0  0  0  0  0  0  0
    6.8078   -0.8950    2.2752 H   0  0  0  0  0  0  0  0  0  0  0  0
    6.9565    1.6699    2.1650 H   0  0  0  0  0  0  0  0  0  0  0  0
    7.5860    2.4672    0.6625 H   0  0  0  0  0  0  0  0  0  0  0  0
    8.6963    1.5707    1.7466 H   0  0  0  0  0  0  0  0  0  0  0  0
    6.2861   -1.7291   -1.0141 H   0  0  0  0  0  0  0  0  0  0  0  0
    4.0829   -1.8670   -2.0095 H   0  0  0  0  0  0  0  0  0  0  0  0
    3.0748    1.9880   -0.3847 H   0  0  0  0  0  0  0  0  0  0  0  0
    5.2707    2.1576    0.6225 H   0  0  0  0  0  0  0  0  0  0  0  0
    1.6340   -1.9996   -1.9737 H   0  0  0  0  0  0  0  0  0  0  0  0
    2.2093   -1.2091   -3.4988 H   0  0  0  0  0  0  0  0  0  0  0  0
   -0.2371   -1.6048   -3.5980 H   0  0  0  0  0  0  0  0  0  0  0  0
    0.1287    0.1488   -3.6012 H   0  0  0  0  0  0  0  0  0  0  0  0
   -0.6052    1.5479   -1.5435 H   0  0  0  0  0  0  0  0  0  0  0  0
   -0.6349   -3.3861   -2.0181 H   0  0  0  0  0  0  0  0  0  0  0  0
   -1.6811   -4.8326   -0.2813 H   0  0  0  0  0  0  0  0  0  0  0  0
   -2.7911   -3.8152    1.6973 H   0  0  0  0  0  0  0  0  0  0  0  0
   -2.8734   -1.3356    1.9550 H   0  0  0  0  0  0  0  0  0  0  0  0
   -1.2904    2.0716    1.2591 H   0  0  0  0  0  0  0  0  0  0  0  0
   -7.5784   -0.0586    2.1821 H   0  0  0  0  0  0  0  0  0  0  0  0
   -6.6100   -0.8250    0.9015 H   0  0  0  0  0  0  0  0  0  0  0  0
   -9.1760    2.0429    1.4544 H   0  0  0  0  0  0  0  0  0  0  0  0
   -9.9249    2.9343   -0.9594 H   0  0  0  0  0  0  0  0  0  0  0  0
   -8.3232    1.7469   -2.7280 H   0  0  0  0  0  0  0  0  0  0  0  0
  1  2  1  0
  2  3  1  0
  2  4  1  0
  2  5  1  0
  5  6  2  0
  6  7  1  0
  7  8  2  0
  8  9  1  0
  9 10  2  0
  8 11  1  0
 11 12  1  0
 12 13  1  0
 13 14  1  0
 14 15  1  0
 15 16  2  0
 16 17  1  0
 17 18  2  0
 18 19  1  0
 19 20  2  0
 20 21  1  0
 21 22  2  0
 16 23  1  0
 23 24  2  0
 24 25  1  0
 25 26  2  0
 25 27  1  0
 27 28  2  0
 28 29  1  0
 29 30  1  0
 30 31  2  0
 29 32  1  0
 32 33  1  0
 33 34  2  0
 34 35  1  0
 35 36  2  0
 36 37  1  0
 28 38  1  0
 10  5  1  0
 18 14  1  0
 22 17  1  0
 30 24  1  0
 37 33  1  0
  1 39  1  0
  1 40  1  0
  1 41  1  0
  3 42  1  0
  3 43  1  0
  3 44  1  0
  4 45  1  0
  4 46  1  0
  4 47  1  0
  6 48  1  0
  7 49  1  0
  9 50  1  0
 10 51  1  0
 12 52  1  0
 12 53  1  0
 13 54  1  0
 13 55  1  0
 15 56  1  0
 19 57  1  0
 20 58  1  0
 21 59  1  0
 22 60  1  0
 23 61  1  0
 32 62  1  0
 32 63  1  0
 34 64  1  0
 35 65  1  0
 36 66  1  0
M  CHG  1  38  -1
M  END
$$$$
