
     RDKit          3D

 66 70  0  0  0  0  0  0  0  0999 V2000
    6.6280    0.7578    2.9827 C   0  0  0  0  0  0  0  0  0  0  0  0
    6.9670   -0.2529    1.8606 C   0  0  0  0  0  0  0  0  0  0  0  0
    8.0636    0.3795    0.9761 C   0  0  0  0  0  0  0  0  0  0  0  0
    7.5214   -1.5288    2.5308 C   0  0  0  0  0  0  0  0  0  0  0  0
    5.7489   -0.6185    0.9871 C   0  0  0  0  0  0  0  0  0  0  0  0
    5.9040   -1.5304   -0.0800 C   0  0  0  0  0  0  0  0  0  0  0  0
    4.8237   -1.8834   -0.8916 C   0  0  0  0  0  0  0  0  0  0  0  0
    3.5573   -1.3401   -0.6698 C   0  0  0  0  0  0  0  0  0  0  0  0
    3.3816   -0.4345    0.3903 C   0  0  0  0  0  0  0  0  0  0  0  0
    4.4600   -0.0779    1.2052 C   0  0  0  0  0  0  0  0  0  0  0  0
    2.5093   -1.7333   -1.5188 O   0  0  0  0  0  0  0  0  0  0  0  0
    1.1823   -1.2078   -1.4959 C   0  0  0  0  0  0  0  0  0  0  0  0
    1.1403    0.1821   -2.1338 C   0  0  0  0  0  0  0  0  0  0  0  0
   -0.2143    0.7290   -2.0610 N   0  0  0  0  0  0  0  0  0  0  0  0
   -0.6851    1.5457   -1.0885 C   0  0  0  0  0  0  0  0  0  0  0  0
   -2.0328    1.8112   -1.2954 C   0  0  0  0  0  0  0  0  0  0  0  0
   -2.3762    1.1460   -2.4602 C   0  0  0  0  0  0  0  0  0  0  0  0
   -1.2520    0.4831   -2.8888 C   0  0  0  0  0  0  0  0  0  0  0  0
   -1.2656   -0.2996   -4.0474 C   0  0  0  0  0  0  0  0  0  0  0  0
   -2.4658   -0.3786   -4.7761 C   0  0  0  0  0  0  0  0  0  0  0  0
   -3.6129    0.3217   -4.3450 C   0  0  0  0  0  0  0  0  0  0  0  0
   -3.5740    1.1011   -3.1758 C   0  0  0  0  0  0  0  0  0  0  0  0
   -2.8627    2.7246   -0.4913 C   0  0  0  0  0  0  0  0  0  0  0  0
   -4.0707    2.4174    0.0296 C   0  0  0  0  0  0  0  0  0  0  0  0
   -4.8899    3.4615    0.6804 C   0  0  0  0  0  0  0  0  0  0  0  0
   -4.4493    4.6329    0.8300 O   0  0  0  0  0  0  0  0  0  0  0  0
   -6.2099    3.1535    1.1377 N   0  0  0  0  0  0  0  0  0  0  0  0
   -6.7516    1.9782    1.0233 C   0  0  0  0  0  0  0  0  0  0  0  0
   -6.0310    0.8787    0.4254 N   0  0  0  0  0  0  0  0  0  0  0  0
   -4.6554    1.0547    0.0327 C   0  0  0  0  0  0  0  0  0  0  0  0
   -3.9489    0.0471   -0.2443 O   0  0  0  0  0  0  0  0  0  0  0  0
   -6.6623   -0.4437    0.3318 C   0  0  0  0  0  0  0  0  0  0  0  0
   -6.4513   -1.2038    1.6028 C   0  0  0  0  0  0  0  0  0  0  0  0
   -5.4256   -2.0929    1.8529 C   0  0  0  0  0  0  0  0  0  0  0  0
   -5.6145   -2.5195    3.1497 C   0  0  0  0  0  0  0  0  0  0  0  0
   -6.7383   -1.8626    3.6096 C   0  0  0  0  0  0  0  0  0  0  0  0
   -7.2131   -1.0834    2.6651 O   0  0  0  0  0  0  0  0  0  0  0  0
   -8.0455    1.7904    1.4966 O   0  0  0  0  0  0  0  0  0  0  0  0
    5.8653    0.3402    3.6751 H   0  0  0  0  0  0  0  0  0  0  0  0
    6.2535    1.7132    2.5555 H   0  0  0  0  0  0  0  0  0  0  0  0
    7.5312    0.9945    3.5863 H   0  0  0  0  0  0  0  0  0  0  0  0
    7.6676    1.2763    0.4521 H   0  0  0  0  0  0  0  0  0  0  0  0
    8.9357    0.6909    1.5912 H   0  0  0  0  0  0  0  0  0  0  0  0
    8.4350   -0.3350    0.2121 H   0  0  0  0  0  0  0  0  0  0  0  0
    6.7311   -2.0205    3.1385 H   0  0  0  0  0  0  0  0  0  0  0  0
    7.8880   -2.2589    1.7793 H   0  0  0  0  0  0  0  0  0  0  0  0
    8.3749   -1.2839    3.1998 H   0  0  0  0  0  0  0  0  0  0  0  0
    6.8655   -1.9771   -0.2933 H   0  0  0  0  0  0  0  0  0  0  0  0
    4.9736   -2.5850   -1.7026 H   0  0  0  0  0  0  0  0  0  0  0  0
    2.4159    0.0031    0.5995 H   0  0  0  0  0  0  0  0  0  0  0  0
    4.2618    0.6232    2.0020 H   0  0  0  0  0  0  0  0  0  0  0  0
    0.5305   -1.8883   -2.0833 H   0  0  0  0  0  0  0  0  0  0  0  0
    0.7858   -1.1868   -0.4584 H   0  0  0  0  0  0  0  0  0  0  0  0
    1.4693    0.1195   -3.1931 H   0  0  0  0  0  0  0  0  0  0  0  0
    1.8444    0.8646   -1.6124 H   0  0  0  0  0  0  0  0  0  0  0  0
   -0.0874    1.9237   -0.2683 H   0  0  0  0  0  0  0  0  0  0  0  0
   -0.3843   -0.8284   -4.3846 H   0  0  0  0  0  0  0  0  0  0  0  0
   -2.5080   -0.9753   -5.6780 H   0  0  0  0  0  0  0  0  0  0  0  0
   -4.5283    0.2596   -4.9189 H   0  0  0  0  0  0  0  0  0  0  0  0
   -4.4492    1.6446   -2.8449 H   0  0  0  0  0  0  0  0  0  0  0  0
   -2.4518    3.7145   -0.3356 H   0  0  0  0  0  0  0  0  0  0  0  0
   -6.2461   -1.0148   -0.5266 H   0  0  0  0  0  0  0  0  0  0  0  0
   -7.7518   -0.3411    0.1399 H   0  0  0  0  0  0  0  0  0  0  0  0
   -4.6351   -2.3913    1.1770 H   0  0  0  0  0  0  0  0  0  0  0  0
   -5.0033   -3.2238    3.6977 H   0  0  0  0  0  0  0  0  0  0  0  0
   -7.1727   -1.9623    4.5952 H   0  0  0  0  0  0  0  0  0  0  0  0
  1  2  1  0
  2  3  1  0
  2  4  1  0
  2  5  1  0
  5  6  2  0
  6  7  1  0
  7  8  2  0
  8  9  1  0
  9 10  2  0
  8 11  1  0
 11 12  1  0
 12 13  1  0
 13 14  1  0
 14 15  1  0
 15 16  2  0
 16 17  1  0
 17 18  2  0
 18 19  1  0
 19 20  2  0
 20 21  1  0
 21 22  2  0
 16 23  1  0
 23 24  2  0
 24 25  1  0
 25 26  2  0
 25 27  1  0
 27 28  2  0
 28 29  1  0
 29 30  1  0
 30 31  2  0
 29 32  1  0
 32 33  1  0
 33 34  2  0
 34 35  1  0
 35 36  2  0
 36 37  1  0
 28 38  1  0
 10  5  1  0
 18 14  1  0
 22 17  1  0
 30 24  1  0
 37 33  1  0
  1 39  1  0
  1 40  1  0
  1 41  1  0
  3 42  1  0
  3 43  1  0
  3 44  1  0
  4 45  1  0
  4 46  1  0
  4 47  1  0
  6 48  1  0
  7 49  1  0
  9 50  1  0
 10 51  1  0
 12 52  1  0
 12 53  1  0
 13 54  1  0
 13 55  1  0
 15 56  1  0
 19 57  1  0
 20 58  1  0
 21 59  1  0
 22 60  1  0
 23 61  1  0
 32 62  1  0
 32 63  1  0
 34 64  1  0
 35 65  1  0
 36 66  1  0
M  CHG  1  38  -1
M  END
$$$$
