
     RDKit          3D

 66 70  0  0  0  0  0  0  0  0999 V2000
   -7.8590   -0.8013   -1.7692 C   0  0  0  0  0  0  0  0  0  0  0  0
   -7.3006   -1.3764   -0.4493 C   0  0  0  0  0  0  0  0  0  0  0  0
   -6.8843   -2.8432   -0.7152 C   0  0  0  0  0  0  0  0  0  0  0  0
   -8.4179   -1.3920    0.6165 C   0  0  0  0  0  0  0  0  0  0  0  0
   -6.1331   -0.4957    0.0423 C   0  0  0  0  0  0  0  0  0  0  0  0
   -4.8230   -0.9953    0.2301 C   0  0  0  0  0  0  0  0  0  0  0  0
   -3.7920   -0.1636    0.6764 C   0  0  0  0  0  0  0  0  0  0  0  0
   -4.0356    1.1933    0.9458 C   0  0  0  0  0  0  0  0  0  0  0  0
   -5.3259    1.6959    0.7707 C   0  0  0  0  0  0  0  0  0  0  0  0
   -6.3596    0.8692    0.3253 C   0  0  0  0  0  0  0  0  0  0  0  0
   -3.0368    2.0730    1.3947 O   0  0  0  0  0  0  0  0  0  0  0  0
   -1.6458    1.7684    1.4998 C   0  0  0  0  0  0  0  0  0  0  0  0
   -0.9903    1.7536    0.1175 C   0  0  0  0  0  0  0  0  0  0  0  0
    0.4525    1.5451    0.2432 N   0  0  0  0  0  0  0  0  0  0  0  0
    1.3820    2.5223    0.3692 C   0  0  0  0  0  0  0  0  0  0  0  0
    2.6434    1.9672    0.5428 C   0  0  0  0  0  0  0  0  0  0  0  0
    2.4520    0.5959    0.5761 C   0  0  0  0  0  0  0  0  0  0  0  0
    1.1101    0.3739    0.3823 C   0  0  0  0  0  0  0  0  0  0  0  0
    0.5777   -0.9191    0.3938 C   0  0  0  0  0  0  0  0  0  0  0  0
    1.4573   -1.9939    0.6137 C   0  0  0  0  0  0  0  0  0  0  0  0
    2.8319   -1.7610    0.8307 C   0  0  0  0  0  0  0  0  0  0  0  0
    3.3423   -0.4517    0.8219 C   0  0  0  0  0  0  0  0  0  0  0  0
    3.8837    2.7162    0.8105 C   0  0  0  0  0  0  0  0  0  0  0  0
    5.0604    2.5060    0.1825 C   0  0  0  0  0  0  0  0  0  0  0  0
    6.2944    3.1570    0.6671 C   0  0  0  0  0  0  0  0  0  0  0  0
    6.2541    4.0338    1.5715 O   0  0  0  0  0  0  0  0  0  0  0  0
    7.5623    2.7703    0.1294 N   0  0  0  0  0  0  0  0  0  0  0  0
    7.6998    1.8997   -0.8256 C   0  0  0  0  0  0  0  0  0  0  0  0
    6.5494    1.2851   -1.4474 N   0  0  0  0  0  0  0  0  0  0  0  0
    5.2233    1.6423   -1.0103 C   0  0  0  0  0  0  0  0  0  0  0  0
    4.2204    1.2646   -1.6758 O   0  0  0  0  0  0  0  0  0  0  0  0
    6.7285    0.2239   -2.4467 C   0  0  0  0  0  0  0  0  0  0  0  0
    6.6581   -1.1136   -1.7816 C   0  0  0  0  0  0  0  0  0  0  0  0
    5.5265   -1.8936   -1.6536 C   0  0  0  0  0  0  0  0  0  0  0  0
    5.9227   -3.0050   -0.9420 C   0  0  0  0  0  0  0  0  0  0  0  0
    7.2667   -2.8320   -0.6777 C   0  0  0  0  0  0  0  0  0  0  0  0
    7.6757   -1.6934   -1.1888 O   0  0  0  0  0  0  0  0  0  0  0  0
    8.9831    1.5715   -1.2484 O   0  0  0  0  0  0  0  0  0  0  0  0
   -8.2790    0.2162   -1.6264 H   0  0  0  0  0  0  0  0  0  0  0  0
   -7.0558   -0.7430   -2.5355 H   0  0  0  0  0  0  0  0  0  0  0  0
   -8.6744   -1.4444   -2.1659 H   0  0  0  0  0  0  0  0  0  0  0  0
   -6.5064   -3.3226    0.2137 H   0  0  0  0  0  0  0  0  0  0  0  0
   -7.7523   -3.4414   -1.0688 H   0  0  0  0  0  0  0  0  0  0  0  0
   -6.1008   -2.8963   -1.5019 H   0  0  0  0  0  0  0  0  0  0  0  0
   -9.2531   -2.0551    0.3026 H   0  0  0  0  0  0  0  0  0  0  0  0
   -8.0217   -1.7642    1.5860 H   0  0  0  0  0  0  0  0  0  0  0  0
   -8.8417   -0.3790    0.7789 H   0  0  0  0  0  0  0  0  0  0  0  0
   -4.5724   -2.0280    0.0394 H   0  0  0  0  0  0  0  0  0  0  0  0
   -2.8111   -0.5934    0.8124 H   0  0  0  0  0  0  0  0  0  0  0  0
   -5.5298    2.7388    0.9786 H   0  0  0  0  0  0  0  0  0  0  0  0
   -7.3412    1.3062    0.2027 H   0  0  0  0  0  0  0  0  0  0  0  0
   -1.4908    0.8054    2.0308 H   0  0  0  0  0  0  0  0  0  0  0  0
   -1.1657    2.5624    2.1101 H   0  0  0  0  0  0  0  0  0  0  0  0
   -1.1834    2.7246   -0.3890 H   0  0  0  0  0  0  0  0  0  0  0  0
   -1.4334    0.9582   -0.5171 H   0  0  0  0  0  0  0  0  0  0  0  0
    1.1577    3.5816    0.3532 H   0  0  0  0  0  0  0  0  0  0  0  0
   -0.4775   -1.0991    0.2456 H   0  0  0  0  0  0  0  0  0  0  0  0
    1.0753   -3.0063    0.6274 H   0  0  0  0  0  0  0  0  0  0  0  0
    3.4965   -2.5954    1.0123 H   0  0  0  0  0  0  0  0  0  0  0  0
    4.3930   -0.2691    1.0050 H   0  0  0  0  0  0  0  0  0  0  0  0
    3.8239    3.4591    1.5964 H   0  0  0  0  0  0  0  0  0  0  0  0
    5.9488    0.2971   -3.2355 H   0  0  0  0  0  0  0  0  0  0  0  0
    7.7048    0.3253   -2.9659 H   0  0  0  0  0  0  0  0  0  0  0  0
    4.5328   -1.6756   -2.0223 H   0  0  0  0  0  0  0  0  0  0  0  0
    5.3037   -3.8407   -0.6445 H   0  0  0  0  0  0  0  0  0  0  0  0
    7.8993   -3.5189   -0.1319 H   0  0  0  0  0  0  0  0  0  0  0  0
  1  2  1  0
  2  3  1  0
  2  4  1  0
  2  5  1  0
  5  6  2  0
  6  7  1  0
  7  8  2  0
  8  9  1  0
  9 10  2  0
  8 11  1  0
 11 12  1  0
 12 13  1  0
 13 14  1  0
 14 15  1  0
 15 16  2  0
 16 17  1  0
 17 18  2  0
 18 19  1  0
 19 20  2  0
 20 21  1  0
 21 22  2  0
 16 23  1  0
 23 24  2  0
 24 25  1  0
 25 26  2  0
 25 27  1  0
 27 28  2  0
 28 29  1  0
 29 30  1  0
 30 31  2  0
 29 32  1  0
 32 33  1  0
 33 34  2  0
 34 35  1  0
 35 36  2  0
 36 37  1  0
 28 38  1  0
 10  5  1  0
 18 14  1  0
 22 17  1  0
 30 24  1  0
 37 33  1  0
  1 39  1  0
  1 40  1  0
  1 41  1  0
  3 42  1  0
  3 43  1  0
  3 44  1  0
  4 45  1  0
  4 46  1  0
  4 47  1  0
  6 48  1  0
  7 49  1  0
  9 50  1  0
 10 51  1  0
 12 52  1  0
 12 53  1  0
 13 54  1  0
 13 55  1  0
 15 56  1  0
 19 57  1  0
 20 58  1  0
 21 59  1  0
 22 60  1  0
 23 61  1  0
 32 62  1  0
 32 63  1  0
 34 64  1  0
 35 65  1  0
 36 66  1  0
M  CHG  1  38  -1
M  END
$$$$
