
     RDKit          3D

 66 70  0  0  0  0  0  0  0  0999 V2000
   -8.3637   -0.0146   -0.2116 C   0  0  0  0  0  0  0  0  0  0  0  0
   -7.3227   -1.1295    0.0511 C   0  0  0  0  0  0  0  0  0  0  0  0
   -7.1597   -1.9357   -1.2559 C   0  0  0  0  0  0  0  0  0  0  0  0
   -7.8899   -2.0498    1.1538 C   0  0  0  0  0  0  0  0  0  0  0  0
   -5.9492   -0.5831    0.4931 C   0  0  0  0  0  0  0  0  0  0  0  0
   -4.8963   -1.4833    0.7695 C   0  0  0  0  0  0  0  0  0  0  0  0
   -3.6400   -1.0242    1.1712 C   0  0  0  0  0  0  0  0  0  0  0  0
   -3.3926    0.3421    1.3093 C   0  0  0  0  0  0  0  0  0  0  0  0
   -4.4260    1.2539    1.0405 C   0  0  0  0  0  0  0  0  0  0  0  0
   -5.6854    0.7995    0.6384 C   0  0  0  0  0  0  0  0  0  0  0  0
   -2.1132    0.7499    1.7125 O   0  0  0  0  0  0  0  0  0  0  0  0
   -1.7092    2.1085    1.8651 C   0  0  0  0  0  0  0  0  0  0  0  0
   -0.2390    2.1656    2.2711 C   0  0  0  0  0  0  0  0  0  0  0  0
    0.6021    1.5473    1.2448 N   0  0  0  0  0  0  0  0  0  0  0  0
    1.0002    0.2527    1.2246 C   0  0  0  0  0  0  0  0  0  0  0  0
    1.7155   -0.0133    0.0638 C   0  0  0  0  0  0  0  0  0  0  0  0
    1.6990    1.1623   -0.6679 C   0  0  0  0  0  0  0  0  0  0  0  0
    1.0216    2.0923    0.0829 C   0  0  0  0  0  0  0  0  0  0  0  0
    0.7925    3.3864   -0.3945 C   0  0  0  0  0  0  0  0  0  0  0  0
    1.2778    3.7140   -1.6730 C   0  0  0  0  0  0  0  0  0  0  0  0
    1.9600    2.7518   -2.4480 C   0  0  0  0  0  0  0  0  0  0  0  0
    2.1683    1.4540   -1.9502 C   0  0  0  0  0  0  0  0  0  0  0  0
    2.2055   -1.3374   -0.3570 C   0  0  0  0  0  0  0  0  0  0  0  0
    3.4516   -1.5944   -0.8108 C   0  0  0  0  0  0  0  0  0  0  0  0
    3.7853   -2.9250   -1.3611 C   0  0  0  0  0  0  0  0  0  0  0  0
    2.9441   -3.8636   -1.3454 O   0  0  0  0  0  0  0  0  0  0  0  0
    5.0737   -3.1582   -1.9370 N   0  0  0  0  0  0  0  0  0  0  0  0
    6.0041   -2.2538   -2.0016 C   0  0  0  0  0  0  0  0  0  0  0  0
    5.7950   -0.9280   -1.4683 N   0  0  0  0  0  0  0  0  0  0  0  0
    4.5704   -0.6221   -0.7721 C   0  0  0  0  0  0  0  0  0  0  0  0
    4.4847    0.4359   -0.0905 O   0  0  0  0  0  0  0  0  0  0  0  0
    6.8742    0.0659   -1.5302 C   0  0  0  0  0  0  0  0  0  0  0  0
    7.7375   -0.0373   -0.3128 C   0  0  0  0  0  0  0  0  0  0  0  0
    8.8684   -0.8184   -0.1869 C   0  0  0  0  0  0  0  0  0  0  0  0
    9.3104   -0.6229    1.1039 C   0  0  0  0  0  0  0  0  0  0  0  0
    8.4213    0.2595    1.6842 C   0  0  0  0  0  0  0  0  0  0  0  0
    7.4933    0.5883    0.8153 O   0  0  0  0  0  0  0  0  0  0  0  0
    7.2182   -2.5867   -2.5918 O   0  0  0  0  0  0  0  0  0  0  0  0
   -8.0227    0.6622   -1.0247 H   0  0  0  0  0  0  0  0  0  0  0  0
   -9.3368   -0.4501   -0.5271 H   0  0  0  0  0  0  0  0  0  0  0  0
   -8.5483    0.5800    0.7092 H   0  0  0  0  0  0  0  0  0  0  0  0
   -6.5069   -2.8217   -1.1108 H   0  0  0  0  0  0  0  0  0  0  0  0
   -6.7121   -1.2987   -2.0493 H   0  0  0  0  0  0  0  0  0  0  0  0
   -8.1442   -2.3042   -1.6175 H   0  0  0  0  0  0  0  0  0  0  0  0
   -8.8998   -2.4222    0.8759 H   0  0  0  0  0  0  0  0  0  0  0  0
   -7.9737   -1.4959    2.1139 H   0  0  0  0  0  0  0  0  0  0  0  0
   -7.2431   -2.9368    1.3185 H   0  0  0  0  0  0  0  0  0  0  0  0
   -5.0396   -2.5510    0.6757 H   0  0  0  0  0  0  0  0  0  0  0  0
   -2.8512   -1.7374    1.3751 H   0  0  0  0  0  0  0  0  0  0  0  0
   -4.2678    2.3191    1.1399 H   0  0  0  0  0  0  0  0  0  0  0  0
   -6.4389    1.5484    0.4462 H   0  0  0  0  0  0  0  0  0  0  0  0
   -2.3221    2.5939    2.6549 H   0  0  0  0  0  0  0  0  0  0  0  0
   -1.8500    2.6543    0.9070 H   0  0  0  0  0  0  0  0  0  0  0  0
    0.0659    3.2229    2.4239 H   0  0  0  0  0  0  0  0  0  0  0  0
   -0.1028    1.6372    3.2400 H   0  0  0  0  0  0  0  0  0  0  0  0
    0.7659   -0.4682    1.9979 H   0  0  0  0  0  0  0  0  0  0  0  0
    0.2514    4.1184    0.1898 H   0  0  0  0  0  0  0  0  0  0  0  0
    1.1170    4.7078   -2.0700 H   0  0  0  0  0  0  0  0  0  0  0  0
    2.3176    3.0121   -3.4356 H   0  0  0  0  0  0  0  0  0  0  0  0
    2.6727    0.7077   -2.5497 H   0  0  0  0  0  0  0  0  0  0  0  0
    1.4832   -2.1425   -0.3000 H   0  0  0  0  0  0  0  0  0  0  0  0
    7.4885   -0.0776   -2.4451 H   0  0  0  0  0  0  0  0  0  0  0  0
    6.4510    1.0915   -1.5957 H   0  0  0  0  0  0  0  0  0  0  0  0
    9.3148   -1.4548   -0.9394 H   0  0  0  0  0  0  0  0  0  0  0  0
   10.1768   -1.0732    1.5693 H   0  0  0  0  0  0  0  0  0  0  0  0
    8.4673    0.6311    2.6990 H   0  0  0  0  0  0  0  0  0  0  0  0
  1  2  1  0
  2  3  1  0
  2  4  1  0
  2  5  1  0
  5  6  2  0
  6  7  1  0
  7  8  2  0
  8  9  1  0
  9 10  2  0
  8 11  1  0
 11 12  1  0
 12 13  1  0
 13 14  1  0
 14 15  1  0
 15 16  2  0
 16 17  1  0
 17 18  2  0
 18 19  1  0
 19 20  2  0
 20 21  1  0
 21 22  2  0
 16 23  1  0
 23 24  2  0
 24 25  1  0
 25 26  2  0
 25 27  1  0
 27 28  2  0
 28 29  1  0
 29 30  1  0
 30 31  2  0
 29 32  1  0
 32 33  1  0
 33 34  2  0
 34 35  1  0
 35 36  2  0
 36 37  1  0
 28 38  1  0
 10  5  1  0
 18 14  1  0
 22 17  1  0
 30 24  1  0
 37 33  1  0
  1 39  1  0
  1 40  1  0
  1 41  1  0
  3 42  1  0
  3 43  1  0
  3 44  1  0
  4 45  1  0
  4 46  1  0
  4 47  1  0
  6 48  1  0
  7 49  1  0
  9 50  1  0
 10 51  1  0
 12 52  1  0
 12 53  1  0
 13 54  1  0
 13 55  1  0
 15 56  1  0
 19 57  1  0
 20 58  1  0
 21 59  1  0
 22 60  1  0
 23 61  1  0
 32 62  1  0
 32 63  1  0
 34 64  1  0
 35 65  1  0
 36 66  1  0
M  CHG  1  38  -1
M  END
$$$$
