
     RDKit          3D

 66 70  0  0  0  0  0  0  0  0999 V2000
    7.3757   -0.8062   -0.1308 C   0  0  0  0  0  0  0  0  0  0  0  0
    5.9551   -1.0866   -0.6672 C   0  0  0  0  0  0  0  0  0  0  0  0
    6.0377   -1.1397   -2.2118 C   0  0  0  0  0  0  0  0  0  0  0  0
    5.4843   -2.4726   -0.1755 C   0  0  0  0  0  0  0  0  0  0  0  0
    4.9854   -0.0043   -0.1503 C   0  0  0  0  0  0  0  0  0  0  0  0
    4.2456    0.8363   -1.0145 C   0  0  0  0  0  0  0  0  0  0  0  0
    3.3522    1.7811   -0.5046 C   0  0  0  0  0  0  0  0  0  0  0  0
    3.1565    1.9088    0.8713 C   0  0  0  0  0  0  0  0  0  0  0  0
    3.9080    1.1084    1.7452 C   0  0  0  0  0  0  0  0  0  0  0  0
    4.8045    0.1636    1.2406 C   0  0  0  0  0  0  0  0  0  0  0  0
    2.1953    2.8260    1.3213 O   0  0  0  0  0  0  0  0  0  0  0  0
    1.6212    2.8488    2.6295 C   0  0  0  0  0  0  0  0  0  0  0  0
    0.7436    1.6144    2.8824 C   0  0  0  0  0  0  0  0  0  0  0  0
   -0.1390    1.3561    1.7408 N   0  0  0  0  0  0  0  0  0  0  0  0
   -1.1961    2.1241    1.3829 C   0  0  0  0  0  0  0  0  0  0  0  0
   -1.7483    1.6637    0.1951 C   0  0  0  0  0  0  0  0  0  0  0  0
   -0.9571    0.5996   -0.2019 C   0  0  0  0  0  0  0  0  0  0  0  0
    0.0013    0.4267    0.7679 C   0  0  0  0  0  0  0  0  0  0  0  0
    0.9784   -0.5696    0.6501 C   0  0  0  0  0  0  0  0  0  0  0  0
    0.9709   -1.3725   -0.5035 C   0  0  0  0  0  0  0  0  0  0  0  0
    0.0018   -1.1721   -1.5083 C   0  0  0  0  0  0  0  0  0  0  0  0
   -0.9749   -0.1721   -1.3656 C   0  0  0  0  0  0  0  0  0  0  0  0
   -2.8310    2.3200   -0.5583 C   0  0  0  0  0  0  0  0  0  0  0  0
   -3.9149    1.6918   -1.0636 C   0  0  0  0  0  0  0  0  0  0  0  0
   -4.8547    2.4173   -1.9440 C   0  0  0  0  0  0  0  0  0  0  0  0
   -4.7094    3.6478   -2.1749 O   0  0  0  0  0  0  0  0  0  0  0  0
   -5.9400    1.7194   -2.5614 N   0  0  0  0  0  0  0  0  0  0  0  0
   -6.1692    0.4526   -2.3867 C   0  0  0  0  0  0  0  0  0  0  0  0
   -5.3303   -0.3460   -1.5240 N   0  0  0  0  0  0  0  0  0  0  0  0
   -4.2744    0.2833   -0.7710 C   0  0  0  0  0  0  0  0  0  0  0  0
   -3.7108   -0.3472    0.1650 O   0  0  0  0  0  0  0  0  0  0  0  0
   -5.6290   -1.7697   -1.3236 C   0  0  0  0  0  0  0  0  0  0  0  0
   -6.5740   -1.9394   -0.1764 C   0  0  0  0  0  0  0  0  0  0  0  0
   -7.9514   -1.9682   -0.2602 C   0  0  0  0  0  0  0  0  0  0  0  0
   -8.3975   -2.1077    1.0363 C   0  0  0  0  0  0  0  0  0  0  0  0
   -7.2674   -2.1509    1.8282 C   0  0  0  0  0  0  0  0  0  0  0  0
   -6.1959   -2.0456    1.0763 O   0  0  0  0  0  0  0  0  0  0  0  0
   -7.2486   -0.1269   -3.0442 O   0  0  0  0  0  0  0  0  0  0  0  0
    7.7115    0.2076   -0.4387 H   0  0  0  0  0  0  0  0  0  0  0  0
    7.4136   -0.8648    0.9769 H   0  0  0  0  0  0  0  0  0  0  0  0
    8.1007   -1.5499   -0.5272 H   0  0  0  0  0  0  0  0  0  0  0  0
    6.7459   -1.9308   -2.5418 H   0  0  0  0  0  0  0  0  0  0  0  0
    5.0456   -1.3761   -2.6538 H   0  0  0  0  0  0  0  0  0  0  0  0
    6.4029   -0.1734   -2.6223 H   0  0  0  0  0  0  0  0  0  0  0  0
    4.4457   -2.6718   -0.5183 H   0  0  0  0  0  0  0  0  0  0  0  0
    6.1432   -3.2762   -0.5704 H   0  0  0  0  0  0  0  0  0  0  0  0
    5.5041   -2.5413    0.9323 H   0  0  0  0  0  0  0  0  0  0  0  0
    4.3336    0.7734   -2.0885 H   0  0  0  0  0  0  0  0  0  0  0  0
    2.7824    2.3986   -1.1875 H   0  0  0  0  0  0  0  0  0  0  0  0
    3.7984    1.1957    2.8166 H   0  0  0  0  0  0  0  0  0  0  0  0
    5.3495   -0.4459    1.9483 H   0  0  0  0  0  0  0  0  0  0  0  0
    0.9862    3.7563    2.7094 H   0  0  0  0  0  0  0  0  0  0  0  0
    2.4118    2.9338    3.4044 H   0  0  0  0  0  0  0  0  0  0  0  0
    0.1266    1.7905    3.7899 H   0  0  0  0  0  0  0  0  0  0  0  0
    1.3788    0.7322    3.0969 H   0  0  0  0  0  0  0  0  0  0  0  0
   -1.5319    2.9919    1.9367 H   0  0  0  0  0  0  0  0  0  0  0  0
    1.7309   -0.7269    1.4086 H   0  0  0  0  0  0  0  0  0  0  0  0
    1.7204   -2.1437   -0.6253 H   0  0  0  0  0  0  0  0  0  0  0  0
    0.0131   -1.7893   -2.3971 H   0  0  0  0  0  0  0  0  0  0  0  0
   -1.7105   -0.0057   -2.1414 H   0  0  0  0  0  0  0  0  0  0  0  0
   -2.7123    3.3852   -0.7147 H   0  0  0  0  0  0  0  0  0  0  0  0
   -6.0657   -2.2129   -2.2445 H   0  0  0  0  0  0  0  0  0  0  0  0
   -4.6944   -2.3349   -1.1177 H   0  0  0  0  0  0  0  0  0  0  0  0
   -8.5572   -1.8930   -1.1535 H   0  0  0  0  0  0  0  0  0  0  0  0
   -9.4256   -2.1674    1.3669 H   0  0  0  0  0  0  0  0  0  0  0  0
   -7.2506   -2.2536    2.9049 H   0  0  0  0  0  0  0  0  0  0  0  0
  1  2  1  0
  2  3  1  0
  2  4  1  0
  2  5  1  0
  5  6  2  0
  6  7  1  0
  7  8  2  0
  8  9  1  0
  9 10  2  0
  8 11  1  0
 11 12  1  0
 12 13  1  0
 13 14  1  0
 14 15  1  0
 15 16  2  0
 16 17  1  0
 17 18  2  0
 18 19  1  0
 19 20  2  0
 20 21  1  0
 21 22  2  0
 16 23  1  0
 23 24  2  0
 24 25  1  0
 25 26  2  0
 25 27  1  0
 27 28  2  0
 28 29  1  0
 29 30  1  0
 30 31  2  0
 29 32  1  0
 32 33  1  0
 33 34  2  0
 34 35  1  0
 35 36  2  0
 36 37  1  0
 28 38  1  0
 10  5  1  0
 18 14  1  0
 22 17  1  0
 30 24  1  0
 37 33  1  0
  1 39  1  0
  1 40  1  0
  1 41  1  0
  3 42  1  0
  3 43  1  0
  3 44  1  0
  4 45  1  0
  4 46  1  0
  4 47  1  0
  6 48  1  0
  7 49  1  0
  9 50  1  0
 10 51  1  0
 12 52  1  0
 12 53  1  0
 13 54  1  0
 13 55  1  0
 15 56  1  0
 19 57  1  0
 20 58  1  0
 21 59  1  0
 22 60  1  0
 23 61  1  0
 32 62  1  0
 32 63  1  0
 34 64  1  0
 35 65  1  0
 36 66  1  0
M  CHG  1  38  -1
M  END
$$$$
