
     RDKit          3D

 66 70  0  0  0  0  0  0  0  0999 V2000
   -7.3845    0.3519    1.5609 C   0  0  0  0  0  0  0  0  0  0  0  0
   -6.4122    1.5135    1.2432 C   0  0  0  0  0  0  0  0  0  0  0  0
   -7.1655    2.5247    0.3517 C   0  0  0  0  0  0  0  0  0  0  0  0
   -6.0366    2.1890    2.5801 C   0  0  0  0  0  0  0  0  0  0  0  0
   -5.1292    1.0489    0.5234 C   0  0  0  0  0  0  0  0  0  0  0  0
   -4.1452    1.9986    0.1684 C   0  0  0  0  0  0  0  0  0  0  0  0
   -2.9705    1.6152   -0.4835 C   0  0  0  0  0  0  0  0  0  0  0  0
   -2.7436    0.2669   -0.8007 C   0  0  0  0  0  0  0  0  0  0  0  0
   -3.7065   -0.6832   -0.4578 C   0  0  0  0  0  0  0  0  0  0  0  0
   -4.8831   -0.3051    0.1945 C   0  0  0  0  0  0  0  0  0  0  0  0
   -1.5814   -0.1691   -1.4511 O   0  0  0  0  0  0  0  0  0  0  0  0
   -0.4987    0.6768   -1.8294 C   0  0  0  0  0  0  0  0  0  0  0  0
    0.6091   -0.1576   -2.4668 C   0  0  0  0  0  0  0  0  0  0  0  0
    1.1334   -1.1333   -1.5093 N   0  0  0  0  0  0  0  0  0  0  0  0
    2.1058   -0.8933   -0.5982 C   0  0  0  0  0  0  0  0  0  0  0  0
    2.2986   -2.0110    0.2117 C   0  0  0  0  0  0  0  0  0  0  0  0
    1.3611   -2.9365   -0.2036 C   0  0  0  0  0  0  0  0  0  0  0  0
    0.6755   -2.3782   -1.2551 C   0  0  0  0  0  0  0  0  0  0  0  0
   -0.3697   -3.0615   -1.8857 C   0  0  0  0  0  0  0  0  0  0  0  0
   -0.6974   -4.3458   -1.4157 C   0  0  0  0  0  0  0  0  0  0  0  0
    0.0109   -4.9157   -0.3361 C   0  0  0  0  0  0  0  0  0  0  0  0
    1.0535   -4.2064    0.2854 C   0  0  0  0  0  0  0  0  0  0  0  0
    3.1617   -2.1095    1.4054 C   0  0  0  0  0  0  0  0  0  0  0  0
    4.4008   -1.5835    1.5105 C   0  0  0  0  0  0  0  0  0  0  0  0
    5.0711   -1.4976    2.8237 C   0  0  0  0  0  0  0  0  0  0  0  0
    4.5935   -2.0764    3.8363 O   0  0  0  0  0  0  0  0  0  0  0  0
    6.2630   -0.7183    2.9642 N   0  0  0  0  0  0  0  0  0  0  0  0
    6.8438   -0.1140    1.9706 C   0  0  0  0  0  0  0  0  0  0  0  0
    6.3359   -0.2357    0.6233 N   0  0  0  0  0  0  0  0  0  0  0  0
    5.1833   -1.0614    0.3681 C   0  0  0  0  0  0  0  0  0  0  0  0
    4.8985   -1.3941   -0.8148 O   0  0  0  0  0  0  0  0  0  0  0  0
    6.9198    0.5601   -0.4640 C   0  0  0  0  0  0  0  0  0  0  0  0
    6.1368    1.8218   -0.6426 C   0  0  0  0  0  0  0  0  0  0  0  0
    5.0201    1.9729   -1.4402 C   0  0  0  0  0  0  0  0  0  0  0  0
    4.6117    3.2765   -1.2604 C   0  0  0  0  0  0  0  0  0  0  0  0
    5.5004    3.8366   -0.3644 C   0  0  0  0  0  0  0  0  0  0  0  0
    6.3963    2.9433   -0.0118 O   0  0  0  0  0  0  0  0  0  0  0  0
    7.9767    0.6508    2.2253 O   0  0  0  0  0  0  0  0  0  0  0  0
   -7.7177   -0.1523    0.6280 H   0  0  0  0  0  0  0  0  0  0  0  0
   -6.9052   -0.3939    2.2314 H   0  0  0  0  0  0  0  0  0  0  0  0
   -8.2936    0.7289    2.0783 H   0  0  0  0  0  0  0  0  0  0  0  0
   -7.4062    2.0674   -0.6325 H   0  0  0  0  0  0  0  0  0  0  0  0
   -8.1167    2.8418    0.8318 H   0  0  0  0  0  0  0  0  0  0  0  0
   -6.5632    3.4397    0.1728 H   0  0  0  0  0  0  0  0  0  0  0  0
   -5.4559    1.4876    3.2175 H   0  0  0  0  0  0  0  0  0  0  0  0
   -6.9486    2.4944    3.1377 H   0  0  0  0  0  0  0  0  0  0  0  0
   -5.4252    3.1014    2.4194 H   0  0  0  0  0  0  0  0  0  0  0  0
   -4.2801    3.0475    0.3942 H   0  0  0  0  0  0  0  0  0  0  0  0
   -2.2458    2.3769   -0.7368 H   0  0  0  0  0  0  0  0  0  0  0  0
   -3.5406   -1.7263   -0.6975 H   0  0  0  0  0  0  0  0  0  0  0  0
   -5.5863   -1.0889    0.4323 H   0  0  0  0  0  0  0  0  0  0  0  0
   -0.8537    1.4307   -2.5647 H   0  0  0  0  0  0  0  0  0  0  0  0
   -0.0962    1.1995   -0.9343 H   0  0  0  0  0  0  0  0  0  0  0  0
    0.2241   -0.6725   -3.3725 H   0  0  0  0  0  0  0  0  0  0  0  0
    1.4292    0.5180   -2.7947 H   0  0  0  0  0  0  0  0  0  0  0  0
    2.6147    0.0569   -0.4941 H   0  0  0  0  0  0  0  0  0  0  0  0
   -0.9219   -2.6236   -2.7059 H   0  0  0  0  0  0  0  0  0  0  0  0
   -1.5016   -4.8992   -1.8827 H   0  0  0  0  0  0  0  0  0  0  0  0
   -0.2527   -5.9036    0.0183 H   0  0  0  0  0  0  0  0  0  0  0  0
    1.5966   -4.6358    1.1173 H   0  0  0  0  0  0  0  0  0  0  0  0
    2.7152   -2.5863    2.2696 H   0  0  0  0  0  0  0  0  0  0  0  0
    6.9226   -0.0191   -1.4126 H   0  0  0  0  0  0  0  0  0  0  0  0
    7.9801    0.8108   -0.2497 H   0  0  0  0  0  0  0  0  0  0  0  0
    4.5543    1.2246   -2.0679 H   0  0  0  0  0  0  0  0  0  0  0  0
    3.7627    3.7611   -1.7235 H   0  0  0  0  0  0  0  0  0  0  0  0
    5.4744    4.8537    0.0030 H   0  0  0  0  0  0  0  0  0  0  0  0
  1  2  1  0
  2  3  1  0
  2  4  1  0
  2  5  1  0
  5  6  2  0
  6  7  1  0
  7  8  2  0
  8  9  1  0
  9 10  2  0
  8 11  1  0
 11 12  1  0
 12 13  1  0
 13 14  1  0
 14 15  1  0
 15 16  2  0
 16 17  1  0
 17 18  2  0
 18 19  1  0
 19 20  2  0
 20 21  1  0
 21 22  2  0
 16 23  1  0
 23 24  2  0
 24 25  1  0
 25 26  2  0
 25 27  1  0
 27 28  2  0
 28 29  1  0
 29 30  1  0
 30 31  2  0
 29 32  1  0
 32 33  1  0
 33 34  2  0
 34 35  1  0
 35 36  2  0
 36 37  1  0
 28 38  1  0
 10  5  1  0
 18 14  1  0
 22 17  1  0
 30 24  1  0
 37 33  1  0
  1 39  1  0
  1 40  1  0
  1 41  1  0
  3 42  1  0
  3 43  1  0
  3 44  1  0
  4 45  1  0
  4 46  1  0
  4 47  1  0
  6 48  1  0
  7 49  1  0
  9 50  1  0
 10 51  1  0
 12 52  1  0
 12 53  1  0
 13 54  1  0
 13 55  1  0
 15 56  1  0
 19 57  1  0
 20 58  1  0
 21 59  1  0
 22 60  1  0
 23 61  1  0
 32 62  1  0
 32 63  1  0
 34 64  1  0
 35 65  1  0
 36 66  1  0
M  CHG  1  38  -1
M  END
$$$$
