
     RDKit          3D

 66 70  0  0  0  0  0  0  0  0999 V2000
    7.9486   -1.9311    0.6482 C   0  0  0  0  0  0  0  0  0  0  0  0
    7.6238   -0.7185   -0.2511 C   0  0  0  0  0  0  0  0  0  0  0  0
    7.3791   -1.2031   -1.6967 C   0  0  0  0  0  0  0  0  0  0  0  0
    8.8690    0.2006   -0.2684 C   0  0  0  0  0  0  0  0  0  0  0  0
    6.3575   -0.0118    0.2758 C   0  0  0  0  0  0  0  0  0  0  0  0
    5.1401   -0.7240    0.3487 C   0  0  0  0  0  0  0  0  0  0  0  0
    3.9728   -0.1179    0.8195 C   0  0  0  0  0  0  0  0  0  0  0  0
    3.9856    1.2253    1.2310 C   0  0  0  0  0  0  0  0  0  0  0  0
    5.1833    1.9399    1.1688 C   0  0  0  0  0  0  0  0  0  0  0  0
    6.3536    1.3379    0.6990 C   0  0  0  0  0  0  0  0  0  0  0  0
    2.8434    1.8864    1.7128 O   0  0  0  0  0  0  0  0  0  0  0  0
    1.5248    1.3409    1.7521 C   0  0  0  0  0  0  0  0  0  0  0  0
    0.9003    1.3359    0.3554 C   0  0  0  0  0  0  0  0  0  0  0  0
   -0.4326    0.7351    0.3998 N   0  0  0  0  0  0  0  0  0  0  0  0
   -0.7128   -0.5758    0.2063 C   0  0  0  0  0  0  0  0  0  0  0  0
   -2.0692   -0.8101    0.3932 C   0  0  0  0  0  0  0  0  0  0  0  0
   -2.6152    0.4062    0.7691 C   0  0  0  0  0  0  0  0  0  0  0  0
   -1.5940    1.3250    0.7550 C   0  0  0  0  0  0  0  0  0  0  0  0
   -1.8074    2.6564    1.1257 C   0  0  0  0  0  0  0  0  0  0  0  0
   -3.1047    3.0331    1.5165 C   0  0  0  0  0  0  0  0  0  0  0  0
   -4.1478    2.0833    1.5457 C   0  0  0  0  0  0  0  0  0  0  0  0
   -3.9061    0.7486    1.1776 C   0  0  0  0  0  0  0  0  0  0  0  0
   -2.7264   -2.1285    0.3639 C   0  0  0  0  0  0  0  0  0  0  0  0
   -3.8710   -2.4034   -0.2977 C   0  0  0  0  0  0  0  0  0  0  0  0
   -4.5627   -3.6922   -0.0936 C   0  0  0  0  0  0  0  0  0  0  0  0
   -4.0289   -4.6171    0.5758 O   0  0  0  0  0  0  0  0  0  0  0  0
   -5.8721   -3.8915   -0.6340 N   0  0  0  0  0  0  0  0  0  0  0  0
   -6.4882   -3.0090   -1.3623 C   0  0  0  0  0  0  0  0  0  0  0  0
   -5.8559   -1.7587   -1.7151 N   0  0  0  0  0  0  0  0  0  0  0  0
   -4.5170   -1.4803   -1.2600 C   0  0  0  0  0  0  0  0  0  0  0  0
   -3.8897   -0.4894   -1.7248 O   0  0  0  0  0  0  0  0  0  0  0  0
   -6.6087   -0.7298   -2.4442 C   0  0  0  0  0  0  0  0  0  0  0  0
   -7.2096    0.2381   -1.4756 C   0  0  0  0  0  0  0  0  0  0  0  0
   -6.6417    1.4271   -1.0643 C   0  0  0  0  0  0  0  0  0  0  0  0
   -7.5215    1.9583   -0.1464 C   0  0  0  0  0  0  0  0  0  0  0  0
   -8.5662    1.0607   -0.0526 C   0  0  0  0  0  0  0  0  0  0  0  0
   -8.3500    0.0439   -0.8553 O   0  0  0  0  0  0  0  0  0  0  0  0
   -7.7747   -3.2929   -1.8069 O   0  0  0  0  0  0  0  0  0  0  0  0
    8.0859   -1.6047    1.7019 H   0  0  0  0  0  0  0  0  0  0  0  0
    8.8827   -2.4318    0.3129 H   0  0  0  0  0  0  0  0  0  0  0  0
    7.1379   -2.6888    0.6209 H   0  0  0  0  0  0  0  0  0  0  0  0
    8.2936   -1.6783   -2.1136 H   0  0  0  0  0  0  0  0  0  0  0  0
    6.5641   -1.9553   -1.7432 H   0  0  0  0  0  0  0  0  0  0  0  0
    7.1016   -0.3472   -2.3493 H   0  0  0  0  0  0  0  0  0  0  0  0
    9.7569   -0.3458   -0.6548 H   0  0  0  0  0  0  0  0  0  0  0  0
    8.7044    1.0784   -0.9300 H   0  0  0  0  0  0  0  0  0  0  0  0
    9.1156    0.5532    0.7565 H   0  0  0  0  0  0  0  0  0  0  0  0
    5.0844   -1.7593    0.0410 H   0  0  0  0  0  0  0  0  0  0  0  0
    3.0688   -0.7088    0.8581 H   0  0  0  0  0  0  0  0  0  0  0  0
    5.2077    2.9750    1.4861 H   0  0  0  0  0  0  0  0  0  0  0  0
    7.2441    1.9478    0.6752 H   0  0  0  0  0  0  0  0  0  0  0  0
    0.9057    1.9803    2.4161 H   0  0  0  0  0  0  0  0  0  0  0  0
    1.5345    0.3212    2.1927 H   0  0  0  0  0  0  0  0  0  0  0  0
    0.8367    2.3754   -0.0314 H   0  0  0  0  0  0  0  0  0  0  0  0
    1.5404    0.7635   -0.3489 H   0  0  0  0  0  0  0  0  0  0  0  0
    0.0275   -1.3264   -0.0410 H   0  0  0  0  0  0  0  0  0  0  0  0
   -1.0041    3.3807    1.1251 H   0  0  0  0  0  0  0  0  0  0  0  0
   -3.3017    4.0564    1.8083 H   0  0  0  0  0  0  0  0  0  0  0  0
   -5.1386    2.3823    1.8615 H   0  0  0  0  0  0  0  0  0  0  0  0
   -4.6998    0.0143    1.2168 H   0  0  0  0  0  0  0  0  0  0  0  0
   -2.2511   -2.9039    0.9522 H   0  0  0  0  0  0  0  0  0  0  0  0
   -5.9442   -0.1925   -3.1551 H   0  0  0  0  0  0  0  0  0  0  0  0
   -7.4150   -1.1848   -3.0574 H   0  0  0  0  0  0  0  0  0  0  0  0
   -5.6984    1.8501   -1.3838 H   0  0  0  0  0  0  0  0  0  0  0  0
   -7.4118    2.8876    0.3961 H   0  0  0  0  0  0  0  0  0  0  0  0
   -9.4358    1.1636    0.5823 H   0  0  0  0  0  0  0  0  0  0  0  0
  1  2  1  0
  2  3  1  0
  2  4  1  0
  2  5  1  0
  5  6  2  0
  6  7  1  0
  7  8  2  0
  8  9  1  0
  9 10  2  0
  8 11  1  0
 11 12  1  0
 12 13  1  0
 13 14  1  0
 14 15  1  0
 15 16  2  0
 16 17  1  0
 17 18  2  0
 18 19  1  0
 19 20  2  0
 20 21  1  0
 21 22  2  0
 16 23  1  0
 23 24  2  0
 24 25  1  0
 25 26  2  0
 25 27  1  0
 27 28  2  0
 28 29  1  0
 29 30  1  0
 30 31  2  0
 29 32  1  0
 32 33  1  0
 33 34  2  0
 34 35  1  0
 35 36  2  0
 36 37  1  0
 28 38  1  0
 10  5  1  0
 18 14  1  0
 22 17  1  0
 30 24  1  0
 37 33  1  0
  1 39  1  0
  1 40  1  0
  1 41  1  0
  3 42  1  0
  3 43  1  0
  3 44  1  0
  4 45  1  0
  4 46  1  0
  4 47  1  0
  6 48  1  0
  7 49  1  0
  9 50  1  0
 10 51  1  0
 12 52  1  0
 12 53  1  0
 13 54  1  0
 13 55  1  0
 15 56  1  0
 19 57  1  0
 20 58  1  0
 21 59  1  0
 22 60  1  0
 23 61  1  0
 32 62  1  0
 32 63  1  0
 34 64  1  0
 35 65  1  0
 36 66  1  0
M  CHG  1  38  -1
M  END
$$$$
