
     RDKit          3D

 66 70  0  0  0  0  0  0  0  0999 V2000
   -5.8696    1.2557   -2.2507 C   0  0  0  0  0  0  0  0  0  0  0  0
   -4.7752    2.3410   -2.1559 C   0  0  0  0  0  0  0  0  0  0  0  0
   -5.3878    3.6385   -1.5850 C   0  0  0  0  0  0  0  0  0  0  0  0
   -4.2886    2.6444   -3.5935 C   0  0  0  0  0  0  0  0  0  0  0  0
   -3.6458    1.8525   -1.2253 C   0  0  0  0  0  0  0  0  0  0  0  0
   -3.9377    1.5368    0.1206 C   0  0  0  0  0  0  0  0  0  0  0  0
   -2.9407    1.0930    0.9930 C   0  0  0  0  0  0  0  0  0  0  0  0
   -1.6186    0.9519    0.5445 C   0  0  0  0  0  0  0  0  0  0  0  0
   -1.3151    1.2557   -0.7832 C   0  0  0  0  0  0  0  0  0  0  0  0
   -2.3079    1.7007   -1.6596 C   0  0  0  0  0  0  0  0  0  0  0  0
   -0.5816    0.5165    1.3800 O   0  0  0  0  0  0  0  0  0  0  0  0
   -0.7432    0.1297    2.7425 C   0  0  0  0  0  0  0  0  0  0  0  0
    0.6096   -0.2762    3.3199 C   0  0  0  0  0  0  0  0  0  0  0  0
    1.1388   -1.4477    2.6183 N   0  0  0  0  0  0  0  0  0  0  0  0
    1.7789   -1.4217    1.4262 C   0  0  0  0  0  0  0  0  0  0  0  0
    2.0929   -2.7140    1.0098 C   0  0  0  0  0  0  0  0  0  0  0  0
    1.5653   -3.5487    1.9773 C   0  0  0  0  0  0  0  0  0  0  0  0
    0.9959   -2.7505    2.9411 C   0  0  0  0  0  0  0  0  0  0  0  0
    0.3367   -3.3013    4.0450 C   0  0  0  0  0  0  0  0  0  0  0  0
    0.2844   -4.7026    4.1508 C   0  0  0  0  0  0  0  0  0  0  0  0
    0.8739   -5.5184    3.1615 C   0  0  0  0  0  0  0  0  0  0  0  0
    1.5201   -4.9413    2.0545 C   0  0  0  0  0  0  0  0  0  0  0  0
    2.6438   -3.1243   -0.2999 C   0  0  0  0  0  0  0  0  0  0  0  0
    3.5120   -2.3993   -1.0370 C   0  0  0  0  0  0  0  0  0  0  0  0
    3.7490   -2.7211   -2.4579 C   0  0  0  0  0  0  0  0  0  0  0  0
    3.3575   -3.8125   -2.9516 O   0  0  0  0  0  0  0  0  0  0  0  0
    4.4002   -1.7651   -3.3021 N   0  0  0  0  0  0  0  0  0  0  0  0
    4.8551   -0.6249   -2.8717 C   0  0  0  0  0  0  0  0  0  0  0  0
    4.7764   -0.2717   -1.4724 N   0  0  0  0  0  0  0  0  0  0  0  0
    4.2582   -1.2294   -0.5315 C   0  0  0  0  0  0  0  0  0  0  0  0
    4.5088   -1.1048    0.6986 O   0  0  0  0  0  0  0  0  0  0  0  0
    5.0995    1.0874   -1.0203 C   0  0  0  0  0  0  0  0  0  0  0  0
    3.8359    1.8637   -0.8170 C   0  0  0  0  0  0  0  0  0  0  0  0
    3.1863    2.0497    0.3871 C   0  0  0  0  0  0  0  0  0  0  0  0
    2.0499    2.7690    0.0873 C   0  0  0  0  0  0  0  0  0  0  0  0
    2.0776    2.9773   -1.2772 C   0  0  0  0  0  0  0  0  0  0  0  0
    3.1532    2.4233   -1.7886 O   0  0  0  0  0  0  0  0  0  0  0  0
    5.4326    0.2507   -3.7842 O   0  0  0  0  0  0  0  0  0  0  0  0
   -5.4361    0.3013   -2.6205 H   0  0  0  0  0  0  0  0  0  0  0  0
   -6.3424    1.0649   -1.2647 H   0  0  0  0  0  0  0  0  0  0  0  0
   -6.6751    1.5679   -2.9505 H   0  0  0  0  0  0  0  0  0  0  0  0
   -5.8572    3.4672   -0.5938 H   0  0  0  0  0  0  0  0  0  0  0  0
   -6.1762    4.0336   -2.2619 H   0  0  0  0  0  0  0  0  0  0  0  0
   -4.6035    4.4177   -1.4698 H   0  0  0  0  0  0  0  0  0  0  0  0
   -3.8677    1.7327   -4.0701 H   0  0  0  0  0  0  0  0  0  0  0  0
   -5.1310    2.9937   -4.2295 H   0  0  0  0  0  0  0  0  0  0  0  0
   -3.5191    3.4466   -3.5902 H   0  0  0  0  0  0  0  0  0  0  0  0
   -4.9432    1.6326    0.5071 H   0  0  0  0  0  0  0  0  0  0  0  0
   -3.2097    0.8640    2.0152 H   0  0  0  0  0  0  0  0  0  0  0  0
   -0.2996    1.1428   -1.1411 H   0  0  0  0  0  0  0  0  0  0  0  0
   -2.0061    1.9194   -2.6728 H   0  0  0  0  0  0  0  0  0  0  0  0
   -1.4494   -0.7261    2.8131 H   0  0  0  0  0  0  0  0  0  0  0  0
   -1.1423    0.9855    3.3286 H   0  0  0  0  0  0  0  0  0  0  0  0
    0.5066   -0.4869    4.4049 H   0  0  0  0  0  0  0  0  0  0  0  0
    1.3220    0.5717    3.2166 H   0  0  0  0  0  0  0  0  0  0  0  0
    1.9513   -0.5170    0.8589 H   0  0  0  0  0  0  0  0  0  0  0  0
   -0.1302   -2.6806    4.7972 H   0  0  0  0  0  0  0  0  0  0  0  0
   -0.2169   -5.1589    4.9944 H   0  0  0  0  0  0  0  0  0  0  0  0
    0.8232   -6.5956    3.2524 H   0  0  0  0  0  0  0  0  0  0  0  0
    1.9667   -5.5625    1.2891 H   0  0  0  0  0  0  0  0  0  0  0  0
    2.2308   -4.0332   -0.7201 H   0  0  0  0  0  0  0  0  0  0  0  0
    5.6785    1.0480   -0.0722 H   0  0  0  0  0  0  0  0  0  0  0  0
    5.7380    1.6168   -1.7580 H   0  0  0  0  0  0  0  0  0  0  0  0
    3.4916    1.6898    1.3608 H   0  0  0  0  0  0  0  0  0  0  0  0
    1.2847    3.0938    0.7796 H   0  0  0  0  0  0  0  0  0  0  0  0
    1.3314    3.5086   -1.8525 H   0  0  0  0  0  0  0  0  0  0  0  0
  1  2  1  0
  2  3  1  0
  2  4  1  0
  2  5  1  0
  5  6  2  0
  6  7  1  0
  7  8  2  0
  8  9  1  0
  9 10  2  0
  8 11  1  0
 11 12  1  0
 12 13  1  0
 13 14  1  0
 14 15  1  0
 15 16  2  0
 16 17  1  0
 17 18  2  0
 18 19  1  0
 19 20  2  0
 20 21  1  0
 21 22  2  0
 16 23  1  0
 23 24  2  0
 24 25  1  0
 25 26  2  0
 25 27  1  0
 27 28  2  0
 28 29  1  0
 29 30  1  0
 30 31  2  0
 29 32  1  0
 32 33  1  0
 33 34  2  0
 34 35  1  0
 35 36  2  0
 36 37  1  0
 28 38  1  0
 10  5  1  0
 18 14  1  0
 22 17  1  0
 30 24  1  0
 37 33  1  0
  1 39  1  0
  1 40  1  0
  1 41  1  0
  3 42  1  0
  3 43  1  0
  3 44  1  0
  4 45  1  0
  4 46  1  0
  4 47  1  0
  6 48  1  0
  7 49  1  0
  9 50  1  0
 10 51  1  0
 12 52  1  0
 12 53  1  0
 13 54  1  0
 13 55  1  0
 15 56  1  0
 19 57  1  0
 20 58  1  0
 21 59  1  0
 22 60  1  0
 23 61  1  0
 32 62  1  0
 32 63  1  0
 34 64  1  0
 35 65  1  0
 36 66  1  0
M  CHG  1  38  -1
M  END
$$$$
