
     RDKit          3D

 66 70  0  0  0  0  0  0  0  0999 V2000
   -5.4231   -1.6820   -1.3632 C   0  0  0  0  0  0  0  0  0  0  0  0
   -4.0397   -2.1136   -0.8198 C   0  0  0  0  0  0  0  0  0  0  0  0
   -4.2537   -3.3489    0.0814 C   0  0  0  0  0  0  0  0  0  0  0  0
   -3.1641   -2.5068   -2.0292 C   0  0  0  0  0  0  0  0  0  0  0  0
   -3.3337   -1.0046   -0.0130 C   0  0  0  0  0  0  0  0  0  0  0  0
   -2.0576   -1.2489    0.5410 C   0  0  0  0  0  0  0  0  0  0  0  0
   -1.3851   -0.2634    1.2661 C   0  0  0  0  0  0  0  0  0  0  0  0
   -1.9546    0.9976    1.4500 C   0  0  0  0  0  0  0  0  0  0  0  0
   -3.2321    1.2528    0.9283 C   0  0  0  0  0  0  0  0  0  0  0  0
   -3.9110    0.2687    0.2048 C   0  0  0  0  0  0  0  0  0  0  0  0
   -1.2123    1.9670    2.1407 O   0  0  0  0  0  0  0  0  0  0  0  0
   -1.4638    3.3741    2.1202 C   0  0  0  0  0  0  0  0  0  0  0  0
   -1.1899    3.9772    0.7339 C   0  0  0  0  0  0  0  0  0  0  0  0
    0.0471    3.4336    0.1661 N   0  0  0  0  0  0  0  0  0  0  0  0
    1.2943    3.6855    0.6330 C   0  0  0  0  0  0  0  0  0  0  0  0
    2.2159    2.8598    0.0058 C   0  0  0  0  0  0  0  0  0  0  0  0
    1.4961    2.0970   -0.8951 C   0  0  0  0  0  0  0  0  0  0  0  0
    0.1796    2.4672   -0.7721 C   0  0  0  0  0  0  0  0  0  0  0  0
   -0.8183    1.8533   -1.5396 C   0  0  0  0  0  0  0  0  0  0  0  0
   -0.4353    0.8414   -2.4373 C   0  0  0  0  0  0  0  0  0  0  0  0
    0.9195    0.4701   -2.5619 C   0  0  0  0  0  0  0  0  0  0  0  0
    1.9045    1.1011   -1.7839 C   0  0  0  0  0  0  0  0  0  0  0  0
    3.6594    2.7964    0.2858 C   0  0  0  0  0  0  0  0  0  0  0  0
    4.3015    1.6748    0.6746 C   0  0  0  0  0  0  0  0  0  0  0  0
    5.7759    1.6219    0.7047 C   0  0  0  0  0  0  0  0  0  0  0  0
    6.4667    2.6624    0.5360 O   0  0  0  0  0  0  0  0  0  0  0  0
    6.4389    0.3684    0.8970 N   0  0  0  0  0  0  0  0  0  0  0  0
    5.8105   -0.7510    1.1035 C   0  0  0  0  0  0  0  0  0  0  0  0
    4.3683   -0.7920    1.1931 N   0  0  0  0  0  0  0  0  0  0  0  0
    3.6124    0.4294    1.0838 C   0  0  0  0  0  0  0  0  0  0  0  0
    2.3875    0.4375    1.3866 O   0  0  0  0  0  0  0  0  0  0  0  0
    3.6593   -2.0680    1.3647 C   0  0  0  0  0  0  0  0  0  0  0  0
    2.8965   -2.4011    0.1212 C   0  0  0  0  0  0  0  0  0  0  0  0
    3.4479   -2.7771   -1.0863 C   0  0  0  0  0  0  0  0  0  0  0  0
    2.3809   -2.9440   -1.9424 C   0  0  0  0  0  0  0  0  0  0  0  0
    1.2492   -2.6586   -1.2053 C   0  0  0  0  0  0  0  0  0  0  0  0
    1.5891   -2.3365    0.0212 O   0  0  0  0  0  0  0  0  0  0  0  0
    6.5563   -1.9155    1.2470 O   0  0  0  0  0  0  0  0  0  0  0  0
   -6.1123   -1.4216   -0.5309 H   0  0  0  0  0  0  0  0  0  0  0  0
   -5.8954   -2.5071   -1.9397 H   0  0  0  0  0  0  0  0  0  0  0  0
   -5.3256   -0.8110   -2.0470 H   0  0  0  0  0  0  0  0  0  0  0  0
   -3.2883   -3.7781    0.4221 H   0  0  0  0  0  0  0  0  0  0  0  0
   -4.8492   -3.0738    0.9788 H   0  0  0  0  0  0  0  0  0  0  0  0
   -4.7976   -4.1481   -0.4677 H   0  0  0  0  0  0  0  0  0  0  0  0
   -3.6785   -3.2640   -2.6599 H   0  0  0  0  0  0  0  0  0  0  0  0
   -2.1991   -2.9478   -1.7062 H   0  0  0  0  0  0  0  0  0  0  0  0
   -2.9495   -1.6155   -2.6577 H   0  0  0  0  0  0  0  0  0  0  0  0
   -1.5693   -2.2048    0.4109 H   0  0  0  0  0  0  0  0  0  0  0  0
   -0.4013   -0.4739    1.6662 H   0  0  0  0  0  0  0  0  0  0  0  0
   -3.7093    2.2123    1.0673 H   0  0  0  0  0  0  0  0  0  0  0  0
   -4.8856    0.5280   -0.1800 H   0  0  0  0  0  0  0  0  0  0  0  0
   -0.7816    3.8532    2.8538 H   0  0  0  0  0  0  0  0  0  0  0  0
   -2.5017    3.5943    2.4476 H   0  0  0  0  0  0  0  0  0  0  0  0
   -1.0965    5.0805    0.8301 H   0  0  0  0  0  0  0  0  0  0  0  0
   -2.0498    3.7869    0.0614 H   0  0  0  0  0  0  0  0  0  0  0  0
    1.5167    4.3851    1.4290 H   0  0  0  0  0  0  0  0  0  0  0  0
   -1.8579    2.1349   -1.4595 H   0  0  0  0  0  0  0  0  0  0  0  0
   -1.1857    0.3456   -3.0391 H   0  0  0  0  0  0  0  0  0  0  0  0
    1.2019   -0.3082   -3.2586 H   0  0  0  0  0  0  0  0  0  0  0  0
    2.9446    0.8146   -1.8702 H   0  0  0  0  0  0  0  0  0  0  0  0
    4.2209    3.7053    0.1091 H   0  0  0  0  0  0  0  0  0  0  0  0
    4.3577   -2.8994    1.5944 H   0  0  0  0  0  0  0  0  0  0  0  0
    2.9571   -1.9929    2.2229 H   0  0  0  0  0  0  0  0  0  0  0  0
    4.4973   -2.9026   -1.3177 H   0  0  0  0  0  0  0  0  0  0  0  0
    2.4222   -3.2320   -2.9842 H   0  0  0  0  0  0  0  0  0  0  0  0
    0.2325   -2.6852   -1.5704 H   0  0  0  0  0  0  0  0  0  0  0  0
  1  2  1  0
  2  3  1  0
  2  4  1  0
  2  5  1  0
  5  6  2  0
  6  7  1  0
  7  8  2  0
  8  9  1  0
  9 10  2  0
  8 11  1  0
 11 12  1  0
 12 13  1  0
 13 14  1  0
 14 15  1  0
 15 16  2  0
 16 17  1  0
 17 18  2  0
 18 19  1  0
 19 20  2  0
 20 21  1  0
 21 22  2  0
 16 23  1  0
 23 24  2  0
 24 25  1  0
 25 26  2  0
 25 27  1  0
 27 28  2  0
 28 29  1  0
 29 30  1  0
 30 31  2  0
 29 32  1  0
 32 33  1  0
 33 34  2  0
 34 35  1  0
 35 36  2  0
 36 37  1  0
 28 38  1  0
 10  5  1  0
 18 14  1  0
 22 17  1  0
 30 24  1  0
 37 33  1  0
  1 39  1  0
  1 40  1  0
  1 41  1  0
  3 42  1  0
  3 43  1  0
  3 44  1  0
  4 45  1  0
  4 46  1  0
  4 47  1  0
  6 48  1  0
  7 49  1  0
  9 50  1  0
 10 51  1  0
 12 52  1  0
 12 53  1  0
 13 54  1  0
 13 55  1  0
 15 56  1  0
 19 57  1  0
 20 58  1  0
 21 59  1  0
 22 60  1  0
 23 61  1  0
 32 62  1  0
 32 63  1  0
 34 64  1  0
 35 65  1  0
 36 66  1  0
M  CHG  1  38  -1
M  END
$$$$
