
     RDKit          3D

 34 36  0  0  0  0  0  0  0  0999 V2000
   -5.3447   -1.4395   -0.5236 C   0  0  0  0  0  0  0  0  0  0  0  0
   -5.6888   -0.8655    0.7008 C   0  0  0  0  0  0  0  0  0  0  0  0
   -5.0112    0.2670    1.1569 C   0  0  0  0  0  0  0  0  0  0  0  0
   -3.9868    0.8363    0.3901 C   0  0  0  0  0  0  0  0  0  0  0  0
   -3.6415    0.2678   -0.8571 C   0  0  0  0  0  0  0  0  0  0  0  0
   -4.3248   -0.8803   -1.2974 C   0  0  0  0  0  0  0  0  0  0  0  0
   -2.5232    0.8296   -1.7019 C   0  0  0  0  0  0  0  0  0  0  0  0
   -1.1924    0.3017   -1.2371 C   0  0  0  0  0  0  0  0  0  0  0  0
   -0.1688    1.1426   -0.7762 C   0  0  0  0  0  0  0  0  0  0  0  0
    1.0067    0.5980   -0.3751 N   0  0  0  0  0  0  0  0  0  0  0  0
    1.2086   -0.7446   -0.4283 C   0  0  0  0  0  0  0  0  0  0  0  0
    0.2079   -1.5484   -0.8726 N   0  0  0  0  0  0  0  0  0  0  0  0
   -0.9572   -1.0370   -1.2704 N   0  0  0  0  0  0  0  0  0  0  0  0
    2.4393   -1.3262    0.0253 N   0  0  0  0  0  0  0  0  0  0  0  0
    3.6321   -0.5754    0.3084 C   0  0  0  0  0  0  0  0  0  0  0  0
    4.0045    0.5331   -0.4745 C   0  0  0  0  0  0  0  0  0  0  0  0
    5.1829    1.2314   -0.1930 C   0  0  0  0  0  0  0  0  0  0  0  0
    6.0063    0.8229    0.8606 C   0  0  0  0  0  0  0  0  0  0  0  0
    5.6550   -0.2920    1.6276 C   0  0  0  0  0  0  0  0  0  0  0  0
    4.4778   -0.9927    1.3479 C   0  0  0  0  0  0  0  0  0  0  0  0
    7.6162    1.7771    1.2415 Br  0  0  0  0  0  0  0  0  0  0  0  0
   -0.3354    2.5215   -0.7245 O   0  0  0  0  0  0  0  0  0  0  0  0
   -3.1609    2.2542    1.0270 Cl  0  0  0  0  0  0  0  0  0  0  0  0
   -5.8667   -2.3211   -0.8727 H   0  0  0  0  0  0  0  0  0  0  0  0
   -6.4785   -1.3010    1.2993 H   0  0  0  0  0  0  0  0  0  0  0  0
   -5.2816    0.7012    2.1112 H   0  0  0  0  0  0  0  0  0  0  0  0
   -4.0658   -1.3452   -2.2407 H   0  0  0  0  0  0  0  0  0  0  0  0
   -2.5574    1.9391   -1.6850 H   0  0  0  0  0  0  0  0  0  0  0  0
   -2.6628    0.5398   -2.7660 H   0  0  0  0  0  0  0  0  0  0  0  0
    2.4384   -2.3490    0.2409 H   0  0  0  0  0  0  0  0  0  0  0  0
    3.4016    0.8440   -1.3171 H   0  0  0  0  0  0  0  0  0  0  0  0
    5.4596    2.0840   -0.7998 H   0  0  0  0  0  0  0  0  0  0  0  0
    6.2939   -0.6175    2.4385 H   0  0  0  0  0  0  0  0  0  0  0  0
    4.2177   -1.8558    1.9478 H   0  0  0  0  0  0  0  0  0  0  0  0
  1  2  2  0
  2  3  1  0
  3  4  2  0
  4  5  1  0
  5  6  2  0
  5  7  1  0
  7  8  1  0
  8  9  2  0
  9 10  1  0
 10 11  2  0
 11 12  1  0
 12 13  2  0
 11 14  1  0
 14 15  1  0
 15 16  2  0
 16 17  1  0
 17 18  2  0
 18 19  1  0
 19 20  2  0
 18 21  1  0
  9 22  1  0
  4 23  1  0
  6  1  1  0
 13  8  1  0
 20 15  1  0
  1 24  1  0
  2 25  1  0
  3 26  1  0
  6 27  1  0
  7 28  1  0
  7 29  1  0
 14 30  1  0
 16 31  1  0
 17 32  1  0
 19 33  1  0
 20 34  1  0
M  CHG  1  22  -1
M  END
$$$$
