
     RDKit          3D

 34 36  0  0  0  0  0  0  0  0999 V2000
   -4.7313   -1.5770    0.2060 C   0  0  0  0  0  0  0  0  0  0  0  0
   -5.3930   -0.9021   -0.8203 C   0  0  0  0  0  0  0  0  0  0  0  0
   -5.1384    0.4524   -1.0436 C   0  0  0  0  0  0  0  0  0  0  0  0
   -4.2203    1.1426   -0.2421 C   0  0  0  0  0  0  0  0  0  0  0  0
   -3.5498    0.4664    0.8036 C   0  0  0  0  0  0  0  0  0  0  0  0
   -3.8136   -0.8995    1.0123 C   0  0  0  0  0  0  0  0  0  0  0  0
   -2.5279    1.1608    1.6718 C   0  0  0  0  0  0  0  0  0  0  0  0
   -1.1792    1.1587    1.0072 C   0  0  0  0  0  0  0  0  0  0  0  0
   -0.2898    0.0826    1.1315 C   0  0  0  0  0  0  0  0  0  0  0  0
    0.9004    0.1269    0.4829 N   0  0  0  0  0  0  0  0  0  0  0  0
    1.2406    1.2004   -0.2776 C   0  0  0  0  0  0  0  0  0  0  0  0
    0.3614    2.2282   -0.4050 N   0  0  0  0  0  0  0  0  0  0  0  0
   -0.8149    2.2063    0.2221 N   0  0  0  0  0  0  0  0  0  0  0  0
    2.4852    1.2372   -0.9903 N   0  0  0  0  0  0  0  0  0  0  0  0
    3.5720    0.3229   -0.7670 C   0  0  0  0  0  0  0  0  0  0  0  0
    4.3749   -0.0696   -1.8492 C   0  0  0  0  0  0  0  0  0  0  0  0
    5.4514   -0.9401   -1.6532 C   0  0  0  0  0  0  0  0  0  0  0  0
    5.7454   -1.4138   -0.3711 C   0  0  0  0  0  0  0  0  0  0  0  0
    4.9665   -1.0088    0.7171 C   0  0  0  0  0  0  0  0  0  0  0  0
    3.8888   -0.1389    0.5239 C   0  0  0  0  0  0  0  0  0  0  0  0
    7.2181   -2.6001   -0.1042 Br  0  0  0  0  0  0  0  0  0  0  0  0
   -0.6065   -1.0257    1.9078 O   0  0  0  0  0  0  0  0  0  0  0  0
   -3.9463    2.8493   -0.5770 Cl  0  0  0  0  0  0  0  0  0  0  0  0
   -4.9285   -2.6275    0.3767 H   0  0  0  0  0  0  0  0  0  0  0  0
   -6.1033   -1.4291   -1.4441 H   0  0  0  0  0  0  0  0  0  0  0  0
   -5.6563    0.9666   -1.8434 H   0  0  0  0  0  0  0  0  0  0  0  0
   -3.3100   -1.4421    1.8023 H   0  0  0  0  0  0  0  0  0  0  0  0
   -2.8432    2.2055    1.8789 H   0  0  0  0  0  0  0  0  0  0  0  0
   -2.4621    0.6662    2.6656 H   0  0  0  0  0  0  0  0  0  0  0  0
    2.5707    1.9211   -1.7763 H   0  0  0  0  0  0  0  0  0  0  0  0
    4.1586    0.2920   -2.8466 H   0  0  0  0  0  0  0  0  0  0  0  0
    6.0571   -1.2437   -2.4974 H   0  0  0  0  0  0  0  0  0  0  0  0
    5.2009   -1.3600    1.7138 H   0  0  0  0  0  0  0  0  0  0  0  0
    3.3225    0.1906    1.3848 H   0  0  0  0  0  0  0  0  0  0  0  0
  1  2  2  0
  2  3  1  0
  3  4  2  0
  4  5  1  0
  5  6  2  0
  5  7  1  0
  7  8  1  0
  8  9  2  0
  9 10  1  0
 10 11  2  0
 11 12  1  0
 12 13  2  0
 11 14  1  0
 14 15  1  0
 15 16  2  0
 16 17  1  0
 17 18  2  0
 18 19  1  0
 19 20  2  0
 18 21  1  0
  9 22  1  0
  4 23  1  0
  6  1  1  0
 13  8  1  0
 20 15  1  0
  1 24  1  0
  2 25  1  0
  3 26  1  0
  6 27  1  0
  7 28  1  0
  7 29  1  0
 14 30  1  0
 16 31  1  0
 17 32  1  0
 19 33  1  0
 20 34  1  0
M  CHG  1  22  -1
M  END
$$$$
