
     RDKit          3D

 34 36  0  0  0  0  0  0  0  0999 V2000
    5.2845   -0.8393    0.6860 C   0  0  0  0  0  0  0  0  0  0  0  0
    5.3602   -1.2293   -0.6515 C   0  0  0  0  0  0  0  0  0  0  0  0
    4.5291   -0.6326   -1.6015 C   0  0  0  0  0  0  0  0  0  0  0  0
    3.6159    0.3590   -1.2214 C   0  0  0  0  0  0  0  0  0  0  0  0
    3.5376    0.7636    0.1316 C   0  0  0  0  0  0  0  0  0  0  0  0
    4.3780    0.1488    1.0773 C   0  0  0  0  0  0  0  0  0  0  0  0
    2.5461    1.8047    0.5934 C   0  0  0  0  0  0  0  0  0  0  0  0
    1.2062    1.1773    0.8617 C   0  0  0  0  0  0  0  0  0  0  0  0
    0.8897    0.5973    2.0979 C   0  0  0  0  0  0  0  0  0  0  0  0
   -0.3258    0.0198    2.2690 N   0  0  0  0  0  0  0  0  0  0  0  0
   -1.2363    0.0018    1.2621 C   0  0  0  0  0  0  0  0  0  0  0  0
   -0.9093    0.5504    0.0616 N   0  0  0  0  0  0  0  0  0  0  0  0
    0.2791    1.1231   -0.1301 N   0  0  0  0  0  0  0  0  0  0  0  0
   -2.5021   -0.6440    1.4601 N   0  0  0  0  0  0  0  0  0  0  0  0
   -3.6138   -0.5391    0.5547 C   0  0  0  0  0  0  0  0  0  0  0  0
   -4.4666   -1.6402    0.3811 C   0  0  0  0  0  0  0  0  0  0  0  0
   -5.5677   -1.5549   -0.4764 C   0  0  0  0  0  0  0  0  0  0  0  0
   -5.8361   -0.3630   -1.1561 C   0  0  0  0  0  0  0  0  0  0  0  0
   -5.0066    0.7472   -0.9705 C   0  0  0  0  0  0  0  0  0  0  0  0
   -3.9042    0.6644   -0.1141 C   0  0  0  0  0  0  0  0  0  0  0  0
   -7.3424   -0.2466   -2.3245 Br  0  0  0  0  0  0  0  0  0  0  0  0
    1.7988    0.6054    3.1490 O   0  0  0  0  0  0  0  0  0  0  0  0
    2.5975    1.0704   -2.4692 Cl  0  0  0  0  0  0  0  0  0  0  0  0
    5.9283   -1.3043    1.4215 H   0  0  0  0  0  0  0  0  0  0  0  0
    6.0630   -1.9955   -0.9525 H   0  0  0  0  0  0  0  0  0  0  0  0
    4.5947   -0.9435   -2.6365 H   0  0  0  0  0  0  0  0  0  0  0  0
    4.3340    0.4357    2.1204 H   0  0  0  0  0  0  0  0  0  0  0  0
    2.9170    2.3150    1.5091 H   0  0  0  0  0  0  0  0  0  0  0  0
    2.4405    2.6035   -0.1711 H   0  0  0  0  0  0  0  0  0  0  0  0
   -2.5887   -1.2957    2.2728 H   0  0  0  0  0  0  0  0  0  0  0  0
   -4.2705   -2.5681    0.9036 H   0  0  0  0  0  0  0  0  0  0  0  0
   -6.2122   -2.4142   -0.6100 H   0  0  0  0  0  0  0  0  0  0  0  0
   -5.2205    1.6769   -1.4819 H   0  0  0  0  0  0  0  0  0  0  0  0
   -3.2975    1.5461    0.0433 H   0  0  0  0  0  0  0  0  0  0  0  0
  1  2  2  0
  2  3  1  0
  3  4  2  0
  4  5  1  0
  5  6  2  0
  5  7  1  0
  7  8  1  0
  8  9  2  0
  9 10  1  0
 10 11  2  0
 11 12  1  0
 12 13  2  0
 11 14  1  0
 14 15  1  0
 15 16  2  0
 16 17  1  0
 17 18  2  0
 18 19  1  0
 19 20  2  0
 18 21  1  0
  9 22  1  0
  4 23  1  0
  6  1  1  0
 13  8  1  0
 20 15  1  0
  1 24  1  0
  2 25  1  0
  3 26  1  0
  6 27  1  0
  7 28  1  0
  7 29  1  0
 14 30  1  0
 16 31  1  0
 17 32  1  0
 19 33  1  0
 20 34  1  0
M  CHG  1  22  -1
M  END
$$$$
