
     RDKit          3D

 34 36  0  0  0  0  0  0  0  0999 V2000
    4.5625    1.9174    0.7531 C   0  0  0  0  0  0  0  0  0  0  0  0
    5.1960    1.8686   -0.4890 C   0  0  0  0  0  0  0  0  0  0  0  0
    5.0486    0.7454   -1.3050 C   0  0  0  0  0  0  0  0  0  0  0  0
    4.2666   -0.3381   -0.8850 C   0  0  0  0  0  0  0  0  0  0  0  0
    3.6259   -0.2981    0.3752 C   0  0  0  0  0  0  0  0  0  0  0  0
    3.7802    0.8430    1.1832 C   0  0  0  0  0  0  0  0  0  0  0  0
    2.7468   -1.4280    0.8556 C   0  0  0  0  0  0  0  0  0  0  0  0
    1.3532   -1.2837    0.3097 C   0  0  0  0  0  0  0  0  0  0  0  0
    0.3826   -0.4970    0.9449 C   0  0  0  0  0  0  0  0  0  0  0  0
   -0.8480   -0.3821    0.3867 N   0  0  0  0  0  0  0  0  0  0  0  0
   -1.1504   -1.0230   -0.7728 C   0  0  0  0  0  0  0  0  0  0  0  0
   -0.1947   -1.7668   -1.3881 N   0  0  0  0  0  0  0  0  0  0  0  0
    1.0225   -1.8934   -0.8589 N   0  0  0  0  0  0  0  0  0  0  0  0
   -2.4411   -0.8787   -1.3826 N   0  0  0  0  0  0  0  0  0  0  0  0
   -3.5846   -0.3034   -0.7282 C   0  0  0  0  0  0  0  0  0  0  0  0
   -4.5065    0.4405   -1.4808 C   0  0  0  0  0  0  0  0  0  0  0  0
   -5.6381    0.9908   -0.8712 C   0  0  0  0  0  0  0  0  0  0  0  0
   -5.8673    0.7893    0.4932 C   0  0  0  0  0  0  0  0  0  0  0  0
   -4.9675    0.0288    1.2461 C   0  0  0  0  0  0  0  0  0  0  0  0
   -3.8345   -0.5222    0.6392 C   0  0  0  0  0  0  0  0  0  0  0  0
   -7.4151    1.5388    1.3240 Br  0  0  0  0  0  0  0  0  0  0  0  0
    0.6598    0.1645    2.1352 O   0  0  0  0  0  0  0  0  0  0  0  0
    4.1228   -1.7235   -1.9621 Cl  0  0  0  0  0  0  0  0  0  0  0  0
    4.6765    2.7897    1.3837 H   0  0  0  0  0  0  0  0  0  0  0  0
    5.8014    2.7024   -0.8204 H   0  0  0  0  0  0  0  0  0  0  0  0
    5.5434    0.7181   -2.2676 H   0  0  0  0  0  0  0  0  0  0  0  0
    3.2961    0.9016    2.1498 H   0  0  0  0  0  0  0  0  0  0  0  0
    2.7183   -1.4525    1.9670 H   0  0  0  0  0  0  0  0  0  0  0  0
    3.1721   -2.4064    0.5464 H   0  0  0  0  0  0  0  0  0  0  0  0
   -2.5283   -1.1340   -2.3925 H   0  0  0  0  0  0  0  0  0  0  0  0
   -4.3412    0.6019   -2.5387 H   0  0  0  0  0  0  0  0  0  0  0  0
   -6.3366    1.5714   -1.4601 H   0  0  0  0  0  0  0  0  0  0  0  0
   -5.1499   -0.1436    2.2991 H   0  0  0  0  0  0  0  0  0  0  0  0
   -3.1715   -1.1378    1.2322 H   0  0  0  0  0  0  0  0  0  0  0  0
  1  2  2  0
  2  3  1  0
  3  4  2  0
  4  5  1  0
  5  6  2  0
  5  7  1  0
  7  8  1  0
  8  9  2  0
  9 10  1  0
 10 11  2  0
 11 12  1  0
 12 13  2  0
 11 14  1  0
 14 15  1  0
 15 16  2  0
 16 17  1  0
 17 18  2  0
 18 19  1  0
 19 20  2  0
 18 21  1  0
  9 22  1  0
  4 23  1  0
  6  1  1  0
 13  8  1  0
 20 15  1  0
  1 24  1  0
  2 25  1  0
  3 26  1  0
  6 27  1  0
  7 28  1  0
  7 29  1  0
 14 30  1  0
 16 31  1  0
 17 32  1  0
 19 33  1  0
 20 34  1  0
M  CHG  1  22  -1
M  END
$$$$
