
     RDKit          3D

 34 36  0  0  0  0  0  0  0  0999 V2000
   -4.9558   -2.3117   -0.2622 C   0  0  0  0  0  0  0  0  0  0  0  0
   -5.2443   -1.8391    1.0187 C   0  0  0  0  0  0  0  0  0  0  0  0
   -4.7217   -0.6172    1.4471 C   0  0  0  0  0  0  0  0  0  0  0  0
   -3.9096    0.1432    0.5963 C   0  0  0  0  0  0  0  0  0  0  0  0
   -3.6236   -0.3231   -0.7071 C   0  0  0  0  0  0  0  0  0  0  0  0
   -4.1473   -1.5618   -1.1198 C   0  0  0  0  0  0  0  0  0  0  0  0
   -2.7278    0.4487   -1.6459 C   0  0  0  0  0  0  0  0  0  0  0  0
   -1.2801    0.1584   -1.3534 C   0  0  0  0  0  0  0  0  0  0  0  0
   -0.3724    1.1605   -0.9803 C   0  0  0  0  0  0  0  0  0  0  0  0
    0.9185    0.8270   -0.7324 N   0  0  0  0  0  0  0  0  0  0  0  0
    1.3395   -0.4607   -0.8366 C   0  0  0  0  0  0  0  0  0  0  0  0
    0.4560   -1.4179   -1.2211 N   0  0  0  0  0  0  0  0  0  0  0  0
   -0.8182   -1.1150   -1.4699 N   0  0  0  0  0  0  0  0  0  0  0  0
    2.7110   -0.8113   -0.6034 N   0  0  0  0  0  0  0  0  0  0  0  0
    3.6730    0.0581    0.0174 C   0  0  0  0  0  0  0  0  0  0  0  0
    3.3133    0.9147    1.0743 C   0  0  0  0  0  0  0  0  0  0  0  0
    4.2739    1.7326    1.6775 C   0  0  0  0  0  0  0  0  0  0  0  0
    5.6022    1.6931    1.2429 C   0  0  0  0  0  0  0  0  0  0  0  0
    5.9719    0.8270    0.2094 C   0  0  0  0  0  0  0  0  0  0  0  0
    5.0136    0.0075   -0.3950 C   0  0  0  0  0  0  0  0  0  0  0  0
    6.9127    2.8094    2.0699 Br  0  0  0  0  0  0  0  0  0  0  0  0
   -0.7692    2.4875   -0.8649 O   0  0  0  0  0  0  0  0  0  0  0  0
   -3.2689    1.6672    1.2004 Cl  0  0  0  0  0  0  0  0  0  0  0  0
   -5.3566   -3.2621   -0.5904 H   0  0  0  0  0  0  0  0  0  0  0  0
   -5.8701   -2.4222    1.6820 H   0  0  0  0  0  0  0  0  0  0  0  0
   -4.9464   -0.2623    2.4450 H   0  0  0  0  0  0  0  0  0  0  0  0
   -3.9270   -1.9494   -2.1070 H   0  0  0  0  0  0  0  0  0  0  0  0
   -2.9548    1.5332   -1.5774 H   0  0  0  0  0  0  0  0  0  0  0  0
   -2.9369    0.1624   -2.6995 H   0  0  0  0  0  0  0  0  0  0  0  0
    3.0457   -1.7267   -0.9812 H   0  0  0  0  0  0  0  0  0  0  0  0
    2.2994    0.9345    1.4510 H   0  0  0  0  0  0  0  0  0  0  0  0
    3.9868    2.3895    2.4884 H   0  0  0  0  0  0  0  0  0  0  0  0
    7.0007    0.7864   -0.1244 H   0  0  0  0  0  0  0  0  0  0  0  0
    5.3127   -0.6605   -1.1930 H   0  0  0  0  0  0  0  0  0  0  0  0
  1  2  2  0
  2  3  1  0
  3  4  2  0
  4  5  1  0
  5  6  2  0
  5  7  1  0
  7  8  1  0
  8  9  2  0
  9 10  1  0
 10 11  2  0
 11 12  1  0
 12 13  2  0
 11 14  1  0
 14 15  1  0
 15 16  2  0
 16 17  1  0
 17 18  2  0
 18 19  1  0
 19 20  2  0
 18 21  1  0
  9 22  1  0
  4 23  1  0
  6  1  1  0
 13  8  1  0
 20 15  1  0
  1 24  1  0
  2 25  1  0
  3 26  1  0
  6 27  1  0
  7 28  1  0
  7 29  1  0
 14 30  1  0
 16 31  1  0
 17 32  1  0
 19 33  1  0
 20 34  1  0
M  CHG  1  22  -1
M  END
$$$$
