
     RDKit          3D

 34 36  0  0  0  0  0  0  0  0999 V2000
   -4.8602   -0.6499    1.0821 C   0  0  0  0  0  0  0  0  0  0  0  0
   -5.3742   -1.3440   -0.0136 C   0  0  0  0  0  0  0  0  0  0  0  0
   -4.9827   -0.9958   -1.3077 C   0  0  0  0  0  0  0  0  0  0  0  0
   -4.0741    0.0495   -1.5162 C   0  0  0  0  0  0  0  0  0  0  0  0
   -3.5529    0.7613   -0.4107 C   0  0  0  0  0  0  0  0  0  0  0  0
   -3.9535    0.3947    0.8870 C   0  0  0  0  0  0  0  0  0  0  0  0
   -2.5463    1.8733   -0.5847 C   0  0  0  0  0  0  0  0  0  0  0  0
   -1.1540    1.3155   -0.6913 C   0  0  0  0  0  0  0  0  0  0  0  0
   -0.3771    1.0318    0.4402 C   0  0  0  0  0  0  0  0  0  0  0  0
    0.8606    0.5012    0.2795 N   0  0  0  0  0  0  0  0  0  0  0  0
    1.3554    0.2484   -0.9606 C   0  0  0  0  0  0  0  0  0  0  0  0
    0.5845    0.5103   -2.0481 N   0  0  0  0  0  0  0  0  0  0  0  0
   -0.6357    1.0307   -1.9148 N   0  0  0  0  0  0  0  0  0  0  0  0
    2.6516   -0.3417   -1.1335 N   0  0  0  0  0  0  0  0  0  0  0  0
    3.6309   -0.4624   -0.0879 C   0  0  0  0  0  0  0  0  0  0  0  0
    4.4800   -1.5796   -0.0655 C   0  0  0  0  0  0  0  0  0  0  0  0
    5.4552   -1.7081    0.9282 C   0  0  0  0  0  0  0  0  0  0  0  0
    5.6017   -0.7132    1.8995 C   0  0  0  0  0  0  0  0  0  0  0  0
    4.7770    0.4156    1.8707 C   0  0  0  0  0  0  0  0  0  0  0  0
    3.8003    0.5463    0.8785 C   0  0  0  0  0  0  0  0  0  0  0  0
    6.9363   -0.8882    3.2543 Br  0  0  0  0  0  0  0  0  0  0  0  0
   -0.8529    1.2861    1.7209 O   0  0  0  0  0  0  0  0  0  0  0  0
   -3.6227    0.4375   -3.1732 Cl  0  0  0  0  0  0  0  0  0  0  0  0
   -5.1635   -0.9223    2.0848 H   0  0  0  0  0  0  0  0  0  0  0  0
   -6.0763   -2.1534    0.1399 H   0  0  0  0  0  0  0  0  0  0  0  0
   -5.3865   -1.5415   -2.1510 H   0  0  0  0  0  0  0  0  0  0  0  0
   -3.5655    0.9195    1.7508 H   0  0  0  0  0  0  0  0  0  0  0  0
   -2.6050    2.5872    0.2658 H   0  0  0  0  0  0  0  0  0  0  0  0
   -2.7827    2.4695   -1.4916 H   0  0  0  0  0  0  0  0  0  0  0  0
    2.8607   -0.7838   -2.0574 H   0  0  0  0  0  0  0  0  0  0  0  0
    4.3777   -2.3560   -0.8134 H   0  0  0  0  0  0  0  0  0  0  0  0
    6.0973   -2.5795    0.9410 H   0  0  0  0  0  0  0  0  0  0  0  0
    4.8982    1.1961    2.6109 H   0  0  0  0  0  0  0  0  0  0  0  0
    3.1983    1.4448    0.8532 H   0  0  0  0  0  0  0  0  0  0  0  0
  1  2  2  0
  2  3  1  0
  3  4  2  0
  4  5  1  0
  5  6  2  0
  5  7  1  0
  7  8  1  0
  8  9  2  0
  9 10  1  0
 10 11  2  0
 11 12  1  0
 12 13  2  0
 11 14  1  0
 14 15  1  0
 15 16  2  0
 16 17  1  0
 17 18  2  0
 18 19  1  0
 19 20  2  0
 18 21  1  0
  9 22  1  0
  4 23  1  0
  6  1  1  0
 13  8  1  0
 20 15  1  0
  1 24  1  0
  2 25  1  0
  3 26  1  0
  6 27  1  0
  7 28  1  0
  7 29  1  0
 14 30  1  0
 16 31  1  0
 17 32  1  0
 19 33  1  0
 20 34  1  0
M  CHG  1  22  -1
M  END
$$$$
