
     RDKit          3D

 34 36  0  0  0  0  0  0  0  0999 V2000
    4.1737    1.8167   -1.2481 C   0  0  0  0  0  0  0  0  0  0  0  0
    4.6422    2.2172    0.0038 C   0  0  0  0  0  0  0  0  0  0  0  0
    4.5357    1.3563    1.0981 C   0  0  0  0  0  0  0  0  0  0  0  0
    3.9633    0.0870    0.9478 C   0  0  0  0  0  0  0  0  0  0  0  0
    3.4983   -0.3303   -0.3202 C   0  0  0  0  0  0  0  0  0  0  0  0
    3.6013    0.5527   -1.4103 C   0  0  0  0  0  0  0  0  0  0  0  0
    2.8456   -1.6769   -0.5207 C   0  0  0  0  0  0  0  0  0  0  0  0
    1.3908   -1.6211   -0.1384 C   0  0  0  0  0  0  0  0  0  0  0  0
    0.8456   -2.4313    0.8686 C   0  0  0  0  0  0  0  0  0  0  0  0
   -0.4753   -2.3290    1.1604 N   0  0  0  0  0  0  0  0  0  0  0  0
   -1.2708   -1.4533    0.4949 C   0  0  0  0  0  0  0  0  0  0  0  0
   -0.7353   -0.6904   -0.4949 N   0  0  0  0  0  0  0  0  0  0  0  0
    0.5598   -0.7722   -0.7994 N   0  0  0  0  0  0  0  0  0  0  0  0
   -2.6701   -1.3876    0.8042 N   0  0  0  0  0  0  0  0  0  0  0  0
   -3.5539   -0.3548    0.3362 C   0  0  0  0  0  0  0  0  0  0  0  0
   -3.1256    0.9806    0.2208 C   0  0  0  0  0  0  0  0  0  0  0  0
   -4.0126    1.9709   -0.2130 C   0  0  0  0  0  0  0  0  0  0  0  0
   -5.3360    1.6416   -0.5213 C   0  0  0  0  0  0  0  0  0  0  0  0
   -5.7752    0.3211   -0.3862 C   0  0  0  0  0  0  0  0  0  0  0  0
   -4.8907   -0.6709    0.0481 C   0  0  0  0  0  0  0  0  0  0  0  0
   -6.5460    2.9963   -1.1114 Br  0  0  0  0  0  0  0  0  0  0  0  0
    1.6314   -3.3390    1.5688 O   0  0  0  0  0  0  0  0  0  0  0  0
    3.8432   -0.9453    2.3684 Cl  0  0  0  0  0  0  0  0  0  0  0  0
    4.2512    2.4877   -2.0939 H   0  0  0  0  0  0  0  0  0  0  0  0
    5.0843    3.1973    0.1276 H   0  0  0  0  0  0  0  0  0  0  0  0
    4.8964    1.6790    2.0666 H   0  0  0  0  0  0  0  0  0  0  0  0
    3.2349    0.2633   -2.3876 H   0  0  0  0  0  0  0  0  0  0  0  0
    3.3953   -2.4517    0.0537 H   0  0  0  0  0  0  0  0  0  0  0  0
    2.9165   -1.9839   -1.5867 H   0  0  0  0  0  0  0  0  0  0  0  0
   -3.0837   -2.1847    1.3393 H   0  0  0  0  0  0  0  0  0  0  0  0
   -2.1167    1.2641    0.4893 H   0  0  0  0  0  0  0  0  0  0  0  0
   -3.6730    2.9949   -0.3003 H   0  0  0  0  0  0  0  0  0  0  0  0
   -6.8012    0.0630   -0.6151 H   0  0  0  0  0  0  0  0  0  0  0  0
   -5.2434   -1.6895    0.1509 H   0  0  0  0  0  0  0  0  0  0  0  0
  1  2  2  0
  2  3  1  0
  3  4  2  0
  4  5  1  0
  5  6  2  0
  5  7  1  0
  7  8  1  0
  8  9  2  0
  9 10  1  0
 10 11  2  0
 11 12  1  0
 12 13  2  0
 11 14  1  0
 14 15  1  0
 15 16  2  0
 16 17  1  0
 17 18  2  0
 18 19  1  0
 19 20  2  0
 18 21  1  0
  9 22  1  0
  4 23  1  0
  6  1  1  0
 13  8  1  0
 20 15  1  0
  1 24  1  0
  2 25  1  0
  3 26  1  0
  6 27  1  0
  7 28  1  0
  7 29  1  0
 14 30  1  0
 16 31  1  0
 17 32  1  0
 19 33  1  0
 20 34  1  0
M  CHG  1  22  -1
M  END
$$$$
