
     RDKit          3D

 34 36  0  0  0  0  0  0  0  0999 V2000
   -4.6788    1.6864    0.7334 C   0  0  0  0  0  0  0  0  0  0  0  0
   -5.2600    0.8097    1.6501 C   0  0  0  0  0  0  0  0  0  0  0  0
   -5.0257   -0.5629    1.5494 C   0  0  0  0  0  0  0  0  0  0  0  0
   -4.2085   -1.0696    0.5310 C   0  0  0  0  0  0  0  0  0  0  0  0
   -3.6203   -0.1876   -0.4052 C   0  0  0  0  0  0  0  0  0  0  0  0
   -3.8621    1.1931   -0.2868 C   0  0  0  0  0  0  0  0  0  0  0  0
   -2.7063   -0.6847   -1.4995 C   0  0  0  0  0  0  0  0  0  0  0  0
   -1.3012   -0.8386   -0.9869 C   0  0  0  0  0  0  0  0  0  0  0  0
   -0.3961    0.2313   -0.9633 C   0  0  0  0  0  0  0  0  0  0  0  0
    0.8483    0.0370   -0.4605 N   0  0  0  0  0  0  0  0  0  0  0  0
    1.2272   -1.1792    0.0128 C   0  0  0  0  0  0  0  0  0  0  0  0
    0.3339   -2.2027    0.0017 N   0  0  0  0  0  0  0  0  0  0  0  0
   -0.8954   -2.0350   -0.4864 N   0  0  0  0  0  0  0  0  0  0  0  0
    2.5321   -1.3807    0.5741 N   0  0  0  0  0  0  0  0  0  0  0  0
    3.6194   -0.4488    0.4471 C   0  0  0  0  0  0  0  0  0  0  0  0
    3.8260    0.2804   -0.7386 C   0  0  0  0  0  0  0  0  0  0  0  0
    4.9058    1.1625   -0.8451 C   0  0  0  0  0  0  0  0  0  0  0  0
    5.7960    1.3143    0.2224 C   0  0  0  0  0  0  0  0  0  0  0  0
    5.6109    0.5752    1.3946 C   0  0  0  0  0  0  0  0  0  0  0  0
    4.5325   -0.3081    1.5036 C   0  0  0  0  0  0  0  0  0  0  0  0
    7.2713    2.5180    0.0735 Br  0  0  0  0  0  0  0  0  0  0  0  0
   -0.7519    1.4847   -1.4467 O   0  0  0  0  0  0  0  0  0  0  0  0
   -3.9546   -2.8106    0.4608 Cl  0  0  0  0  0  0  0  0  0  0  0  0
   -4.8602    2.7505    0.8140 H   0  0  0  0  0  0  0  0  0  0  0  0
   -5.8921    1.1942    2.4401 H   0  0  0  0  0  0  0  0  0  0  0  0
   -5.4804   -1.2346    2.2665 H   0  0  0  0  0  0  0  0  0  0  0  0
   -3.4197    1.8905   -0.9869 H   0  0  0  0  0  0  0  0  0  0  0  0
   -3.0706   -1.6566   -1.8950 H   0  0  0  0  0  0  0  0  0  0  0  0
   -2.7203    0.0139   -2.3646 H   0  0  0  0  0  0  0  0  0  0  0  0
    2.6713   -2.2200    1.1815 H   0  0  0  0  0  0  0  0  0  0  0  0
    3.1712    0.1510   -1.5899 H   0  0  0  0  0  0  0  0  0  0  0  0
    5.0550    1.7203   -1.7606 H   0  0  0  0  0  0  0  0  0  0  0  0
    6.3025    0.6827    2.2203 H   0  0  0  0  0  0  0  0  0  0  0  0
    4.4010   -0.8764    2.4158 H   0  0  0  0  0  0  0  0  0  0  0  0
  1  2  2  0
  2  3  1  0
  3  4  2  0
  4  5  1  0
  5  6  2  0
  5  7  1  0
  7  8  1  0
  8  9  2  0
  9 10  1  0
 10 11  2  0
 11 12  1  0
 12 13  2  0
 11 14  1  0
 14 15  1  0
 15 16  2  0
 16 17  1  0
 17 18  2  0
 18 19  1  0
 19 20  2  0
 18 21  1  0
  9 22  1  0
  4 23  1  0
  6  1  1  0
 13  8  1  0
 20 15  1  0
  1 24  1  0
  2 25  1  0
  3 26  1  0
  6 27  1  0
  7 28  1  0
  7 29  1  0
 14 30  1  0
 16 31  1  0
 17 32  1  0
 19 33  1  0
 20 34  1  0
M  CHG  1  22  -1
M  END
$$$$
