
     RDKit          3D

 34 36  0  0  0  0  0  0  0  0999 V2000
   -5.1757    0.8398   -0.1602 C   0  0  0  0  0  0  0  0  0  0  0  0
   -5.1310    0.7549   -1.5521 C   0  0  0  0  0  0  0  0  0  0  0  0
   -4.2561   -0.1408   -2.1699 C   0  0  0  0  0  0  0  0  0  0  0  0
   -3.4194   -0.9589   -1.4004 C   0  0  0  0  0  0  0  0  0  0  0  0
   -3.4631   -0.8825    0.0112 C   0  0  0  0  0  0  0  0  0  0  0  0
   -4.3462    0.0290    0.6181 C   0  0  0  0  0  0  0  0  0  0  0  0
   -2.5566   -1.7206    0.8806 C   0  0  0  0  0  0  0  0  0  0  0  0
   -1.2119   -1.0645    1.0296 C   0  0  0  0  0  0  0  0  0  0  0  0
   -0.9614   -0.0938    2.0092 C   0  0  0  0  0  0  0  0  0  0  0  0
    0.2634    0.4859    2.0722 N   0  0  0  0  0  0  0  0  0  0  0  0
    1.2404    0.1468    1.1926 C   0  0  0  0  0  0  0  0  0  0  0  0
    0.9872   -0.8026    0.2526 N   0  0  0  0  0  0  0  0  0  0  0  0
   -0.2087   -1.3857    0.1714 N   0  0  0  0  0  0  0  0  0  0  0  0
    2.5360    0.7535    1.3007 N   0  0  0  0  0  0  0  0  0  0  0  0
    3.5631    0.6497    0.3002 C   0  0  0  0  0  0  0  0  0  0  0  0
    4.9087    0.6065    0.6968 C   0  0  0  0  0  0  0  0  0  0  0  0
    5.9265    0.5291   -0.2588 C   0  0  0  0  0  0  0  0  0  0  0  0
    5.6097    0.5105   -1.6205 C   0  0  0  0  0  0  0  0  0  0  0  0
    4.2734    0.5783   -2.0260 C   0  0  0  0  0  0  0  0  0  0  0  0
    3.2534    0.6549   -1.0725 C   0  0  0  0  0  0  0  0  0  0  0  0
    7.0010    0.4083   -2.9248 Br  0  0  0  0  0  0  0  0  0  0  0  0
   -1.9443    0.2803    2.9177 O   0  0  0  0  0  0  0  0  0  0  0  0
   -2.3400   -2.0662   -2.2424 Cl  0  0  0  0  0  0  0  0  0  0  0  0
   -5.8532    1.5361    0.3170 H   0  0  0  0  0  0  0  0  0  0  0  0
   -5.7742    1.3845   -2.1533 H   0  0  0  0  0  0  0  0  0  0  0  0
   -4.2282   -0.1979   -3.2507 H   0  0  0  0  0  0  0  0  0  0  0  0
   -4.3952    0.1116    1.6965 H   0  0  0  0  0  0  0  0  0  0  0  0
   -3.0147   -1.8787    1.8814 H   0  0  0  0  0  0  0  0  0  0  0  0
   -2.4339   -2.7349    0.4447 H   0  0  0  0  0  0  0  0  0  0  0  0
    2.7700    1.2343    2.1989 H   0  0  0  0  0  0  0  0  0  0  0  0
    5.1670    0.6224    1.7482 H   0  0  0  0  0  0  0  0  0  0  0  0
    6.9601    0.4859    0.0598 H   0  0  0  0  0  0  0  0  0  0  0  0
    4.0246    0.5810   -3.0795 H   0  0  0  0  0  0  0  0  0  0  0  0
    2.2291    0.7438   -1.4091 H   0  0  0  0  0  0  0  0  0  0  0  0
  1  2  2  0
  2  3  1  0
  3  4  2  0
  4  5  1  0
  5  6  2  0
  5  7  1  0
  7  8  1  0
  8  9  2  0
  9 10  1  0
 10 11  2  0
 11 12  1  0
 12 13  2  0
 11 14  1  0
 14 15  1  0
 15 16  2  0
 16 17  1  0
 17 18  2  0
 18 19  1  0
 19 20  2  0
 18 21  1  0
  9 22  1  0
  4 23  1  0
  6  1  1  0
 13  8  1  0
 20 15  1  0
  1 24  1  0
  2 25  1  0
  3 26  1  0
  6 27  1  0
  7 28  1  0
  7 29  1  0
 14 30  1  0
 16 31  1  0
 17 32  1  0
 19 33  1  0
 20 34  1  0
M  CHG  1  22  -1
M  END
$$$$
