
     RDKit          3D

 34 36  0  0  0  0  0  0  0  0999 V2000
   -4.0270   -1.3744    2.2412 C   0  0  0  0  0  0  0  0  0  0  0  0
   -4.6996   -0.1733    2.4695 C   0  0  0  0  0  0  0  0  0  0  0  0
   -4.7692    0.7912    1.4622 C   0  0  0  0  0  0  0  0  0  0  0  0
   -4.1697    0.5604    0.2177 C   0  0  0  0  0  0  0  0  0  0  0  0
   -3.4977   -0.6593   -0.0250 C   0  0  0  0  0  0  0  0  0  0  0  0
   -3.4256   -1.6162    1.0036 C   0  0  0  0  0  0  0  0  0  0  0  0
   -2.8105   -0.9374   -1.3404 C   0  0  0  0  0  0  0  0  0  0  0  0
   -1.4369   -0.3220   -1.3602 C   0  0  0  0  0  0  0  0  0  0  0  0
   -1.0578    0.6422   -2.3058 C   0  0  0  0  0  0  0  0  0  0  0  0
    0.1988    1.1517   -2.2672 N   0  0  0  0  0  0  0  0  0  0  0  0
    1.0937    0.7311   -1.3371 C   0  0  0  0  0  0  0  0  0  0  0  0
    0.7127   -0.2004   -0.4231 N   0  0  0  0  0  0  0  0  0  0  0  0
   -0.5167   -0.7152   -0.4400 N   0  0  0  0  0  0  0  0  0  0  0  0
    2.4053    1.3115   -1.2994 N   0  0  0  0  0  0  0  0  0  0  0  0
    3.4942    0.7987   -0.5133 C   0  0  0  0  0  0  0  0  0  0  0  0
    4.4208    1.6927    0.0453 C   0  0  0  0  0  0  0  0  0  0  0  0
    5.5012    1.2166    0.7944 C   0  0  0  0  0  0  0  0  0  0  0  0
    5.6748   -0.1584    0.9786 C   0  0  0  0  0  0  0  0  0  0  0  0
    4.7709   -1.0579    0.4052 C   0  0  0  0  0  0  0  0  0  0  0  0
    3.6890   -0.5845   -0.3437 C   0  0  0  0  0  0  0  0  0  0  0  0
    7.1528   -0.8076    1.9991 Br  0  0  0  0  0  0  0  0  0  0  0  0
   -1.9439    1.0836   -3.2814 O   0  0  0  0  0  0  0  0  0  0  0  0
   -4.2792    1.8215   -1.0053 Cl  0  0  0  0  0  0  0  0  0  0  0  0
   -3.9686   -2.1184    3.0252 H   0  0  0  0  0  0  0  0  0  0  0  0
   -5.1640    0.0125    3.4293 H   0  0  0  0  0  0  0  0  0  0  0  0
   -5.2881    1.7225    1.6515 H   0  0  0  0  0  0  0  0  0  0  0  0
   -2.9002   -2.5505    0.8483 H   0  0  0  0  0  0  0  0  0  0  0  0
   -3.4396   -0.5735   -2.1795 H   0  0  0  0  0  0  0  0  0  0  0  0
   -2.7057   -2.0332   -1.4950 H   0  0  0  0  0  0  0  0  0  0  0  0
    2.5496    2.2103   -1.8133 H   0  0  0  0  0  0  0  0  0  0  0  0
    4.2985    2.7598   -0.0921 H   0  0  0  0  0  0  0  0  0  0  0  0
    6.2035    1.9165    1.2288 H   0  0  0  0  0  0  0  0  0  0  0  0
    4.9110   -2.1238    0.5314 H   0  0  0  0  0  0  0  0  0  0  0  0
    3.0232   -1.2989   -0.8093 H   0  0  0  0  0  0  0  0  0  0  0  0
  1  2  2  0
  2  3  1  0
  3  4  2  0
  4  5  1  0
  5  6  2  0
  5  7  1  0
  7  8  1  0
  8  9  2  0
  9 10  1  0
 10 11  2  0
 11 12  1  0
 12 13  2  0
 11 14  1  0
 14 15  1  0
 15 16  2  0
 16 17  1  0
 17 18  2  0
 18 19  1  0
 19 20  2  0
 18 21  1  0
  9 22  1  0
  4 23  1  0
  6  1  1  0
 13  8  1  0
 20 15  1  0
  1 24  1  0
  2 25  1  0
  3 26  1  0
  6 27  1  0
  7 28  1  0
  7 29  1  0
 14 30  1  0
 16 31  1  0
 17 32  1  0
 19 33  1  0
 20 34  1  0
M  CHG  1  22  -1
M  END
$$$$
