
     RDKit          3D

 61 62  0  0  0  0  0  0  0  0999 V2000
   -2.3145    2.3966   -2.0358 C   0  0  0  0  0  0  0  0  0  0  0  0
   -3.6106    1.7555   -2.5452 C   0  0  0  0  0  0  0  0  0  0  0  0
   -4.7947    2.1777   -1.6666 C   0  0  0  0  0  0  0  0  0  0  0  0
   -3.5104    0.2145   -2.7039 C   0  0  0  0  0  0  0  0  0  0  0  0
   -3.2939   -0.4992   -1.4186 N   0  0  0  0  0  0  0  0  0  0  0  0
   -2.0278   -0.7321   -0.9094 C   0  0  0  0  0  0  0  0  0  0  0  0
   -1.8836   -1.3341    0.3611 C   0  0  0  0  0  0  0  0  0  0  0  0
   -3.0325   -1.7061    1.0607 C   0  0  0  0  0  0  0  0  0  0  0  0
   -2.9434   -2.2073    2.2143 O   0  0  0  0  0  0  0  0  0  0  0  0
   -4.2514   -1.5193    0.5051 N   0  0  0  0  0  0  0  0  0  0  0  0
   -4.3941   -0.9316   -0.7103 C   0  0  0  0  0  0  0  0  0  0  0  0
   -5.5588   -0.7870   -1.1757 O   0  0  0  0  0  0  0  0  0  0  0  0
   -0.5858   -1.5129    0.9655 N   0  0  0  0  0  0  0  0  0  0  0  0
   -0.0803   -2.8780    1.1951 C   0  0  0  0  0  0  0  0  0  0  0  0
    0.8224   -3.3507    0.0318 C   0  0  0  0  0  0  0  0  0  0  0  0
    1.8134   -4.4149    0.5194 C   0  0  0  0  0  0  0  0  0  0  0  0
   -0.0099   -3.9107   -1.1304 C   0  0  0  0  0  0  0  0  0  0  0  0
    0.1367   -0.3448    1.4227 C   0  0  0  0  0  0  0  0  0  0  0  0
   -0.4232    0.7859    1.3769 O   0  0  0  0  0  0  0  0  0  0  0  0
    1.5208   -0.4433    2.0178 C   0  0  0  0  0  0  0  0  0  0  0  0
    2.2536    0.8213    1.8693 N   0  0  0  0  0  0  0  0  0  0  0  0
    2.1305    1.8522    2.9063 C   0  0  0  0  0  0  0  0  0  0  0  0
    2.9030    1.1248    0.6165 C   0  0  0  0  0  0  0  0  0  0  0  0
    2.5070    0.5646   -0.4421 O   0  0  0  0  0  0  0  0  0  0  0  0
    4.0206    2.0878    0.5331 C   0  0  0  0  0  0  0  0  0  0  0  0
    4.0949    2.9950   -0.5340 C   0  0  0  0  0  0  0  0  0  0  0  0
    5.1631    3.8913   -0.6173 C   0  0  0  0  0  0  0  0  0  0  0  0
    6.1581    3.8611    0.3623 C   0  0  0  0  0  0  0  0  0  0  0  0
    6.0857    2.9607    1.3779 N   0  0  0  0  0  0  0  0  0  0  0  0
    5.0539    2.0812    1.4827 C   0  0  0  0  0  0  0  0  0  0  0  0
    5.2629    5.1431   -2.0561 Br  0  0  0  0  0  0  0  0  0  0  0  0
   -0.8376   -0.4051   -1.6557 N   0  0  0  0  0  0  0  0  0  0  0  0
   -2.4273    3.5012   -1.9985 H   0  0  0  0  0  0  0  0  0  0  0  0
   -2.0662    2.0402   -1.0144 H   0  0  0  0  0  0  0  0  0  0  0  0
   -1.4762    2.1741   -2.7273 H   0  0  0  0  0  0  0  0  0  0  0  0
   -3.7981    2.1707   -3.5605 H   0  0  0  0  0  0  0  0  0  0  0  0
   -5.7379    1.7377   -2.0535 H   0  0  0  0  0  0  0  0  0  0  0  0
   -4.9052    3.2831   -1.6832 H   0  0  0  0  0  0  0  0  0  0  0  0
   -4.6417    1.8585   -0.6140 H   0  0  0  0  0  0  0  0  0  0  0  0
   -2.7461   -0.0501   -3.4577 H   0  0  0  0  0  0  0  0  0  0  0  0
   -4.4436   -0.1423   -3.1923 H   0  0  0  0  0  0  0  0  0  0  0  0
   -5.1038   -1.8205    1.0316 H   0  0  0  0  0  0  0  0  0  0  0  0
   -0.9238   -3.5909    1.3247 H   0  0  0  0  0  0  0  0  0  0  0  0
    0.4706   -2.9077    2.1599 H   0  0  0  0  0  0  0  0  0  0  0  0
    1.4152   -2.4918   -0.3510 H   0  0  0  0  0  0  0  0  0  0  0  0
    2.4625   -4.7496   -0.3178 H   0  0  0  0  0  0  0  0  0  0  0  0
    2.4685   -3.9938    1.3118 H   0  0  0  0  0  0  0  0  0  0  0  0
    1.2723   -5.2947    0.9298 H   0  0  0  0  0  0  0  0  0  0  0  0
   -0.7149   -3.1479   -1.5138 H   0  0  0  0  0  0  0  0  0  0  0  0
    0.6559   -4.2084   -1.9683 H   0  0  0  0  0  0  0  0  0  0  0  0
   -0.5919   -4.7996   -0.8047 H   0  0  0  0  0  0  0  0  0  0  0  0
    1.4298   -0.7095    3.0927 H   0  0  0  0  0  0  0  0  0  0  0  0
    2.1039   -1.2532    1.5342 H   0  0  0  0  0  0  0  0  0  0  0  0
    1.3605    1.5745    3.6574 H   0  0  0  0  0  0  0  0  0  0  0  0
    1.8268    2.8172    2.4475 H   0  0  0  0  0  0  0  0  0  0  0  0
    3.0942    1.9818    3.4371 H   0  0  0  0  0  0  0  0  0  0  0  0
    3.3202    3.0148   -1.2909 H   0  0  0  0  0  0  0  0  0  0  0  0
    6.9934    4.5469    0.3134 H   0  0  0  0  0  0  0  0  0  0  0  0
    5.0545    1.3626    2.2916 H   0  0  0  0  0  0  0  0  0  0  0  0
   -0.8380   -0.0445   -2.6296 H   0  0  0  0  0  0  0  0  0  0  0  0
    0.1123   -0.5950   -1.2719 H   0  0  0  0  0  0  0  0  0  0  0  0
  1  2  1  0
  2  3  1  0
  2  4  1  0
  4  5  1  0
  5  6  1  0
  6  7  2  0
  7  8  1  0
  8  9  2  0
  8 10  1  0
 10 11  1  0
 11 12  2  0
  7 13  1  0
 13 14  1  0
 14 15  1  0
 15 16  1  0
 15 17  1  0
 13 18  1  0
 18 19  2  0
 18 20  1  0
 20 21  1  0
 21 22  1  0
 21 23  1  0
 23 24  2  0
 23 25  1  0
 25 26  2  0
 26 27  1  0
 27 28  2  0
 28 29  1  0
 29 30  2  0
 27 31  1  0
  6 32  1  0
 11  5  1  0
 30 25  1  0
  1 33  1  0
  1 34  1  0
  1 35  1  0
  2 36  1  0
  3 37  1  0
  3 38  1  0
  3 39  1  0
  4 40  1  0
  4 41  1  0
 10 42  1  0
 14 43  1  0
 14 44  1  0
 15 45  1  0
 16 46  1  0
 16 47  1  0
 16 48  1  0
 17 49  1  0
 17 50  1  0
 17 51  1  0
 20 52  1  0
 20 53  1  0
 22 54  1  0
 22 55  1  0
 22 56  1  0
 26 57  1  0
 28 58  1  0
 30 59  1  0
 32 60  1  0
 32 61  1  0
M  END
$$$$
