
     RDKit          3D

 61 62  0  0  0  0  0  0  0  0999 V2000
   -3.8016    3.7805   -0.0171 C   0  0  0  0  0  0  0  0  0  0  0  0
   -4.0085    2.7981   -1.1775 C   0  0  0  0  0  0  0  0  0  0  0  0
   -5.0315    3.3631   -2.1699 C   0  0  0  0  0  0  0  0  0  0  0  0
   -4.4665    1.4107   -0.6715 C   0  0  0  0  0  0  0  0  0  0  0  0
   -3.4090    0.7395    0.1186 N   0  0  0  0  0  0  0  0  0  0  0  0
   -2.3444    0.1120   -0.4995 C   0  0  0  0  0  0  0  0  0  0  0  0
   -1.3591   -0.5241    0.2827 C   0  0  0  0  0  0  0  0  0  0  0  0
   -1.4604   -0.4594    1.6730 C   0  0  0  0  0  0  0  0  0  0  0  0
   -0.5787   -0.9898    2.4014 O   0  0  0  0  0  0  0  0  0  0  0  0
   -2.5108    0.1748    2.2451 N   0  0  0  0  0  0  0  0  0  0  0  0
   -3.4775    0.7628    1.4934 C   0  0  0  0  0  0  0  0  0  0  0  0
   -4.4347    1.3386    2.0817 O   0  0  0  0  0  0  0  0  0  0  0  0
   -0.2539   -1.2178   -0.3283 N   0  0  0  0  0  0  0  0  0  0  0  0
   -0.4996   -2.5585   -0.8908 C   0  0  0  0  0  0  0  0  0  0  0  0
   -0.6183   -3.6290    0.2155 C   0  0  0  0  0  0  0  0  0  0  0  0
    0.7106   -3.8406    0.9517 C   0  0  0  0  0  0  0  0  0  0  0  0
   -1.1033   -4.9566   -0.3795 C   0  0  0  0  0  0  0  0  0  0  0  0
    1.0218   -0.5408   -0.4189 C   0  0  0  0  0  0  0  0  0  0  0  0
    1.1189    0.6472   -0.0026 O   0  0  0  0  0  0  0  0  0  0  0  0
    2.2254   -1.1780   -1.0689 C   0  0  0  0  0  0  0  0  0  0  0  0
    3.4649   -0.4910   -0.6744 N   0  0  0  0  0  0  0  0  0  0  0  0
    4.2978    0.1723   -1.6846 C   0  0  0  0  0  0  0  0  0  0  0  0
    3.9530   -0.6306    0.6761 C   0  0  0  0  0  0  0  0  0  0  0  0
    3.7333   -1.6996    1.3086 O   0  0  0  0  0  0  0  0  0  0  0  0
    4.7087    0.4507    1.3439 C   0  0  0  0  0  0  0  0  0  0  0  0
    4.3508    1.7963    1.1711 C   0  0  0  0  0  0  0  0  0  0  0  0
    5.0648    2.8006    1.8286 C   0  0  0  0  0  0  0  0  0  0  0  0
    6.1256    2.4487    2.6659 C   0  0  0  0  0  0  0  0  0  0  0  0
    6.4493    1.1403    2.8402 N   0  0  0  0  0  0  0  0  0  0  0  0
    5.7692    0.1447    2.2111 C   0  0  0  0  0  0  0  0  0  0  0  0
    4.5862    4.6345    1.5954 Br  0  0  0  0  0  0  0  0  0  0  0  0
   -2.1967    0.1178   -1.9335 N   0  0  0  0  0  0  0  0  0  0  0  0
   -3.5081    4.7786   -0.4067 H   0  0  0  0  0  0  0  0  0  0  0  0
   -2.9857    3.4271    0.6474 H   0  0  0  0  0  0  0  0  0  0  0  0
   -4.7340    3.8892    0.5775 H   0  0  0  0  0  0  0  0  0  0  0  0
   -3.0403    2.6970   -1.7127 H   0  0  0  0  0  0  0  0  0  0  0  0
   -4.6894    4.3466   -2.5573 H   0  0  0  0  0  0  0  0  0  0  0  0
   -5.1460    2.6755   -3.0349 H   0  0  0  0  0  0  0  0  0  0  0  0
   -6.0211    3.4940   -1.6812 H   0  0  0  0  0  0  0  0  0  0  0  0
   -5.4028    1.5274   -0.0828 H   0  0  0  0  0  0  0  0  0  0  0  0
   -4.7751    0.7610   -1.5174 H   0  0  0  0  0  0  0  0  0  0  0  0
   -2.5786    0.2123    3.2883 H   0  0  0  0  0  0  0  0  0  0  0  0
   -1.4520   -2.5346   -1.4642 H   0  0  0  0  0  0  0  0  0  0  0  0
    0.2798   -2.8457   -1.6258 H   0  0  0  0  0  0  0  0  0  0  0  0
   -1.3789   -3.2977    0.9556 H   0  0  0  0  0  0  0  0  0  0  0  0
    1.4844   -4.2360    0.2598 H   0  0  0  0  0  0  0  0  0  0  0  0
    1.0705   -2.8885    1.3928 H   0  0  0  0  0  0  0  0  0  0  0  0
    0.5739   -4.5675    1.7804 H   0  0  0  0  0  0  0  0  0  0  0  0
   -0.3840   -5.3322   -1.1389 H   0  0  0  0  0  0  0  0  0  0  0  0
   -1.2118   -5.7197    0.4207 H   0  0  0  0  0  0  0  0  0  0  0  0
   -2.0954   -4.8219   -0.8610 H   0  0  0  0  0  0  0  0  0  0  0  0
    2.0785   -1.1400   -2.1690 H   0  0  0  0  0  0  0  0  0  0  0  0
    2.3061   -2.2453   -0.7853 H   0  0  0  0  0  0  0  0  0  0  0  0
    3.9221   -0.0149   -2.7121 H   0  0  0  0  0  0  0  0  0  0  0  0
    4.3035    1.2681   -1.5218 H   0  0  0  0  0  0  0  0  0  0  0  0
    5.3381   -0.2121   -1.6264 H   0  0  0  0  0  0  0  0  0  0  0  0
    3.5081    2.0659    0.5478 H   0  0  0  0  0  0  0  0  0  0  0  0
    6.6889    3.2132    3.1841 H   0  0  0  0  0  0  0  0  0  0  0  0
    6.0634   -0.8834    2.3791 H   0  0  0  0  0  0  0  0  0  0  0  0
   -1.3266   -0.2349   -2.3889 H   0  0  0  0  0  0  0  0  0  0  0  0
   -2.9133    0.5010   -2.5841 H   0  0  0  0  0  0  0  0  0  0  0  0
  1  2  1  0
  2  3  1  0
  2  4  1  0
  4  5  1  0
  5  6  1  0
  6  7  2  0
  7  8  1  0
  8  9  2  0
  8 10  1  0
 10 11  1  0
 11 12  2  0
  7 13  1  0
 13 14  1  0
 14 15  1  0
 15 16  1  0
 15 17  1  0
 13 18  1  0
 18 19  2  0
 18 20  1  0
 20 21  1  0
 21 22  1  0
 21 23  1  0
 23 24  2  0
 23 25  1  0
 25 26  2  0
 26 27  1  0
 27 28  2  0
 28 29  1  0
 29 30  2  0
 27 31  1  0
  6 32  1  0
 11  5  1  0
 30 25  1  0
  1 33  1  0
  1 34  1  0
  1 35  1  0
  2 36  1  0
  3 37  1  0
  3 38  1  0
  3 39  1  0
  4 40  1  0
  4 41  1  0
 10 42  1  0
 14 43  1  0
 14 44  1  0
 15 45  1  0
 16 46  1  0
 16 47  1  0
 16 48  1  0
 17 49  1  0
 17 50  1  0
 17 51  1  0
 20 52  1  0
 20 53  1  0
 22 54  1  0
 22 55  1  0
 22 56  1  0
 26 57  1  0
 28 58  1  0
 30 59  1  0
 32 60  1  0
 32 61  1  0
M  END
$$$$
