
     RDKit          3D

 61 62  0  0  0  0  0  0  0  0999 V2000
   -5.5786    2.8212    1.6722 C   0  0  0  0  0  0  0  0  0  0  0  0
   -4.3228    2.4513    0.8742 C   0  0  0  0  0  0  0  0  0  0  0  0
   -4.1938    3.3589   -0.3563 C   0  0  0  0  0  0  0  0  0  0  0  0
   -4.3648    0.9578    0.4759 C   0  0  0  0  0  0  0  0  0  0  0  0
   -3.0802    0.5104   -0.1094 N   0  0  0  0  0  0  0  0  0  0  0  0
   -1.9923    0.2202    0.6914 C   0  0  0  0  0  0  0  0  0  0  0  0
   -0.7872   -0.2124    0.1016 C   0  0  0  0  0  0  0  0  0  0  0  0
   -0.7096   -0.2860   -1.2900 C   0  0  0  0  0  0  0  0  0  0  0  0
    0.3597   -0.6512   -1.8492 O   0  0  0  0  0  0  0  0  0  0  0  0
   -1.7900    0.0227   -2.0447 N   0  0  0  0  0  0  0  0  0  0  0  0
   -2.9623    0.4085   -1.4774 C   0  0  0  0  0  0  0  0  0  0  0  0
   -3.9383    0.6800   -2.2308 O   0  0  0  0  0  0  0  0  0  0  0  0
    0.3612   -0.5504    0.9021 N   0  0  0  0  0  0  0  0  0  0  0  0
    0.3513   -1.7989    1.6819 C   0  0  0  0  0  0  0  0  0  0  0  0
    0.9064   -2.9843    0.8569 C   0  0  0  0  0  0  0  0  0  0  0  0
    1.5937   -4.0062    1.7713 C   0  0  0  0  0  0  0  0  0  0  0  0
   -0.2021   -3.6751    0.0497 C   0  0  0  0  0  0  0  0  0  0  0  0
    1.4750    0.3704    0.9322 C   0  0  0  0  0  0  0  0  0  0  0  0
    1.2920    1.5707    0.5890 O   0  0  0  0  0  0  0  0  0  0  0  0
    2.8628   -0.0393    1.3508 C   0  0  0  0  0  0  0  0  0  0  0  0
    3.8016    0.2056    0.2530 N   0  0  0  0  0  0  0  0  0  0  0  0
    4.7581    1.3090    0.3446 C   0  0  0  0  0  0  0  0  0  0  0  0
    3.8811   -0.7279   -0.8354 C   0  0  0  0  0  0  0  0  0  0  0  0
    4.1422   -1.9366   -0.5880 O   0  0  0  0  0  0  0  0  0  0  0  0
    3.6438   -0.2959   -2.2339 C   0  0  0  0  0  0  0  0  0  0  0  0
    3.0816    0.9598   -2.5197 C   0  0  0  0  0  0  0  0  0  0  0  0
    2.8317    1.3336   -3.8415 C   0  0  0  0  0  0  0  0  0  0  0  0
    3.1490    0.4494   -4.8735 C   0  0  0  0  0  0  0  0  0  0  0  0
    3.6905   -0.7632   -4.5870 N   0  0  0  0  0  0  0  0  0  0  0  0
    3.9395   -1.1529   -3.3083 C   0  0  0  0  0  0  0  0  0  0  0  0
    2.0497    3.0316   -4.2309 Br  0  0  0  0  0  0  0  0  0  0  0  0
   -2.0454    0.3883    2.1221 N   0  0  0  0  0  0  0  0  0  0  0  0
   -5.5359    3.8863    1.9852 H   0  0  0  0  0  0  0  0  0  0  0  0
   -6.4928    2.6628    1.0604 H   0  0  0  0  0  0  0  0  0  0  0  0
   -5.6472    2.1974    2.5890 H   0  0  0  0  0  0  0  0  0  0  0  0
   -3.4427    2.6370    1.5261 H   0  0  0  0  0  0  0  0  0  0  0  0
   -3.2327    3.1682   -0.8779 H   0  0  0  0  0  0  0  0  0  0  0  0
   -5.0328    3.1844   -1.0636 H   0  0  0  0  0  0  0  0  0  0  0  0
   -4.2022    4.4264   -0.0486 H   0  0  0  0  0  0  0  0  0  0  0  0
   -5.2120    0.7904   -0.2249 H   0  0  0  0  0  0  0  0  0  0  0  0
   -4.6239    0.3212    1.3479 H   0  0  0  0  0  0  0  0  0  0  0  0
   -1.7206   -0.0416   -3.0865 H   0  0  0  0  0  0  0  0  0  0  0  0
   -0.6812   -2.0294    2.0256 H   0  0  0  0  0  0  0  0  0  0  0  0
    0.9349   -1.6495    2.6162 H   0  0  0  0  0  0  0  0  0  0  0  0
    1.6671   -2.6089    0.1399 H   0  0  0  0  0  0  0  0  0  0  0  0
    1.9955   -4.8508    1.1717 H   0  0  0  0  0  0  0  0  0  0  0  0
    0.8762   -4.4051    2.5204 H   0  0  0  0  0  0  0  0  0  0  0  0
    2.4447   -3.5328    2.3057 H   0  0  0  0  0  0  0  0  0  0  0  0
   -0.9709   -4.1058    0.7268 H   0  0  0  0  0  0  0  0  0  0  0  0
   -0.6959   -2.9593   -0.6358 H   0  0  0  0  0  0  0  0  0  0  0  0
    0.2278   -4.4932   -0.5668 H   0  0  0  0  0  0  0  0  0  0  0  0
    2.9230   -1.1023    1.6536 H   0  0  0  0  0  0  0  0  0  0  0  0
    3.1461    0.5624    2.2416 H   0  0  0  0  0  0  0  0  0  0  0  0
    5.3415    1.4120   -0.5954 H   0  0  0  0  0  0  0  0  0  0  0  0
    4.2170    2.2606    0.5299 H   0  0  0  0  0  0  0  0  0  0  0  0
    5.4643    1.1211    1.1804 H   0  0  0  0  0  0  0  0  0  0  0  0
    2.8182    1.6434   -1.7241 H   0  0  0  0  0  0  0  0  0  0  0  0
    2.9621    0.7225   -5.9035 H   0  0  0  0  0  0  0  0  0  0  0  0
    4.3689   -2.1309   -3.1338 H   0  0  0  0  0  0  0  0  0  0  0  0
   -1.1816    0.3327    2.7048 H   0  0  0  0  0  0  0  0  0  0  0  0
   -2.9186    0.6118    2.6428 H   0  0  0  0  0  0  0  0  0  0  0  0
  1  2  1  0
  2  3  1  0
  2  4  1  0
  4  5  1  0
  5  6  1  0
  6  7  2  0
  7  8  1  0
  8  9  2  0
  8 10  1  0
 10 11  1  0
 11 12  2  0
  7 13  1  0
 13 14  1  0
 14 15  1  0
 15 16  1  0
 15 17  1  0
 13 18  1  0
 18 19  2  0
 18 20  1  0
 20 21  1  0
 21 22  1  0
 21 23  1  0
 23 24  2  0
 23 25  1  0
 25 26  2  0
 26 27  1  0
 27 28  2  0
 28 29  1  0
 29 30  2  0
 27 31  1  0
  6 32  1  0
 11  5  1  0
 30 25  1  0
  1 33  1  0
  1 34  1  0
  1 35  1  0
  2 36  1  0
  3 37  1  0
  3 38  1  0
  3 39  1  0
  4 40  1  0
  4 41  1  0
 10 42  1  0
 14 43  1  0
 14 44  1  0
 15 45  1  0
 16 46  1  0
 16 47  1  0
 16 48  1  0
 17 49  1  0
 17 50  1  0
 17 51  1  0
 20 52  1  0
 20 53  1  0
 22 54  1  0
 22 55  1  0
 22 56  1  0
 26 57  1  0
 28 58  1  0
 30 59  1  0
 32 60  1  0
 32 61  1  0
M  END
$$$$
