
     RDKit          3D

 61 62  0  0  0  0  0  0  0  0999 V2000
   -2.4630   -1.6829   -2.7022 C   0  0  0  0  0  0  0  0  0  0  0  0
   -3.8215   -1.5792   -1.9998 C   0  0  0  0  0  0  0  0  0  0  0  0
   -3.9580   -2.6797   -0.9402 C   0  0  0  0  0  0  0  0  0  0  0  0
   -4.1083   -0.1649   -1.4271 C   0  0  0  0  0  0  0  0  0  0  0  0
   -3.1748    0.2344   -0.3420 N   0  0  0  0  0  0  0  0  0  0  0  0
   -1.9740    0.8734   -0.6005 C   0  0  0  0  0  0  0  0  0  0  0  0
   -1.0836    1.1472    0.4629 C   0  0  0  0  0  0  0  0  0  0  0  0
   -1.4568    0.7879    1.7588 C   0  0  0  0  0  0  0  0  0  0  0  0
   -0.6702    0.9781    2.7259 O   0  0  0  0  0  0  0  0  0  0  0  0
   -2.6644    0.2214    1.9812 N   0  0  0  0  0  0  0  0  0  0  0  0
   -3.5177   -0.0523    0.9616 C   0  0  0  0  0  0  0  0  0  0  0  0
   -4.6319   -0.5793    1.2347 O   0  0  0  0  0  0  0  0  0  0  0  0
    0.2153    1.7291    0.2271 N   0  0  0  0  0  0  0  0  0  0  0  0
    0.5204    3.0640    0.7694 C   0  0  0  0  0  0  0  0  0  0  0  0
    0.3449    4.1641   -0.3014 C   0  0  0  0  0  0  0  0  0  0  0  0
    1.1912    5.3943    0.0501 C   0  0  0  0  0  0  0  0  0  0  0  0
   -1.1277    4.5731   -0.4454 C   0  0  0  0  0  0  0  0  0  0  0  0
    1.2439    0.9888   -0.4715 C   0  0  0  0  0  0  0  0  0  0  0  0
    2.2813    1.5867   -0.8688 O   0  0  0  0  0  0  0  0  0  0  0  0
    1.1103   -0.4853   -0.7640 C   0  0  0  0  0  0  0  0  0  0  0  0
    2.3258   -1.2025   -0.3615 N   0  0  0  0  0  0  0  0  0  0  0  0
    3.4217   -1.3713   -1.3222 C   0  0  0  0  0  0  0  0  0  0  0  0
    2.5195   -1.5471    1.0259 C   0  0  0  0  0  0  0  0  0  0  0  0
    1.9724   -0.8486    1.9227 O   0  0  0  0  0  0  0  0  0  0  0  0
    3.3500   -2.7008    1.4302 C   0  0  0  0  0  0  0  0  0  0  0  0
    4.1811   -2.6157    2.5570 C   0  0  0  0  0  0  0  0  0  0  0  0
    4.9495   -3.7161    2.9445 C   0  0  0  0  0  0  0  0  0  0  0  0
    4.8676   -4.8999    2.2080 C   0  0  0  0  0  0  0  0  0  0  0  0
    4.0404   -4.9759    1.1322 N   0  0  0  0  0  0  0  0  0  0  0  0
    3.2859   -3.9173    0.7331 C   0  0  0  0  0  0  0  0  0  0  0  0
    6.0981   -3.6037    4.4661 Br  0  0  0  0  0  0  0  0  0  0  0  0
   -1.6100    1.2955   -1.9310 N   0  0  0  0  0  0  0  0  0  0  0  0
   -2.3397   -2.6958   -3.1417 H   0  0  0  0  0  0  0  0  0  0  0  0
   -2.4017   -0.9524   -3.5345 H   0  0  0  0  0  0  0  0  0  0  0  0
   -1.6310   -1.5132   -1.9883 H   0  0  0  0  0  0  0  0  0  0  0  0
   -4.5988   -1.7761   -2.7714 H   0  0  0  0  0  0  0  0  0  0  0  0
   -3.8696   -3.6793   -1.4168 H   0  0  0  0  0  0  0  0  0  0  0  0
   -4.9543   -2.6243   -0.4532 H   0  0  0  0  0  0  0  0  0  0  0  0
   -3.1633   -2.5896   -0.1697 H   0  0  0  0  0  0  0  0  0  0  0  0
   -5.1578   -0.1497   -1.0596 H   0  0  0  0  0  0  0  0  0  0  0  0
   -4.1431    0.5842   -2.2395 H   0  0  0  0  0  0  0  0  0  0  0  0
   -2.9400   -0.0252    2.9599 H   0  0  0  0  0  0  0  0  0  0  0  0
    1.5645    3.0625    1.1541 H   0  0  0  0  0  0  0  0  0  0  0  0
   -0.1224    3.2903    1.6483 H   0  0  0  0  0  0  0  0  0  0  0  0
    0.7007    3.7824   -1.2834 H   0  0  0  0  0  0  0  0  0  0  0  0
    2.2676    5.1216    0.0859 H   0  0  0  0  0  0  0  0  0  0  0  0
    0.8916    5.8066    1.0378 H   0  0  0  0  0  0  0  0  0  0  0  0
    1.0644    6.1827   -0.7225 H   0  0  0  0  0  0  0  0  0  0  0  0
   -1.7550    3.7019   -0.7148 H   0  0  0  0  0  0  0  0  0  0  0  0
   -1.2364    5.3317   -1.2496 H   0  0  0  0  0  0  0  0  0  0  0  0
   -1.5106    5.0035    0.5049 H   0  0  0  0  0  0  0  0  0  0  0  0
    0.2421   -0.9346   -0.2393 H   0  0  0  0  0  0  0  0  0  0  0  0
    0.9251   -0.6180   -1.8516 H   0  0  0  0  0  0  0  0  0  0  0  0
    3.5434   -2.4406   -1.5852 H   0  0  0  0  0  0  0  0  0  0  0  0
    3.2236   -0.8088   -2.2594 H   0  0  0  0  0  0  0  0  0  0  0  0
    4.3686   -0.9876   -0.8868 H   0  0  0  0  0  0  0  0  0  0  0  0
    4.2418   -1.6952    3.1247 H   0  0  0  0  0  0  0  0  0  0  0  0
    5.4544   -5.7625    2.4941 H   0  0  0  0  0  0  0  0  0  0  0  0
    2.6196   -4.0344   -0.1114 H   0  0  0  0  0  0  0  0  0  0  0  0
   -2.2306    1.2160   -2.7600 H   0  0  0  0  0  0  0  0  0  0  0  0
   -0.7108    1.7883   -2.1183 H   0  0  0  0  0  0  0  0  0  0  0  0
  1  2  1  0
  2  3  1  0
  2  4  1  0
  4  5  1  0
  5  6  1  0
  6  7  2  0
  7  8  1  0
  8  9  2  0
  8 10  1  0
 10 11  1  0
 11 12  2  0
  7 13  1  0
 13 14  1  0
 14 15  1  0
 15 16  1  0
 15 17  1  0
 13 18  1  0
 18 19  2  0
 18 20  1  0
 20 21  1  0
 21 22  1  0
 21 23  1  0
 23 24  2  0
 23 25  1  0
 25 26  2  0
 26 27  1  0
 27 28  2  0
 28 29  1  0
 29 30  2  0
 27 31  1  0
  6 32  1  0
 11  5  1  0
 30 25  1  0
  1 33  1  0
  1 34  1  0
  1 35  1  0
  2 36  1  0
  3 37  1  0
  3 38  1  0
  3 39  1  0
  4 40  1  0
  4 41  1  0
 10 42  1  0
 14 43  1  0
 14 44  1  0
 15 45  1  0
 16 46  1  0
 16 47  1  0
 16 48  1  0
 17 49  1  0
 17 50  1  0
 17 51  1  0
 20 52  1  0
 20 53  1  0
 22 54  1  0
 22 55  1  0
 22 56  1  0
 26 57  1  0
 28 58  1  0
 30 59  1  0
 32 60  1  0
 32 61  1  0
M  END
$$$$
