
     RDKit          3D

 61 62  0  0  0  0  0  0  0  0999 V2000
   -6.2656    1.3691   -0.5730 C   0  0  0  0  0  0  0  0  0  0  0  0
   -4.7536    1.5931   -0.6921 C   0  0  0  0  0  0  0  0  0  0  0  0
   -4.4668    3.0377   -1.1228 C   0  0  0  0  0  0  0  0  0  0  0  0
   -4.1395    0.5747   -1.6803 C   0  0  0  0  0  0  0  0  0  0  0  0
   -2.6591    0.6143   -1.6566 N   0  0  0  0  0  0  0  0  0  0  0  0
   -1.9429    0.0007   -0.6462 C   0  0  0  0  0  0  0  0  0  0  0  0
   -0.5316    0.0543   -0.6569 C   0  0  0  0  0  0  0  0  0  0  0  0
    0.1020    0.7643   -1.6797 C   0  0  0  0  0  0  0  0  0  0  0  0
    1.3580    0.8660   -1.7019 O   0  0  0  0  0  0  0  0  0  0  0  0
   -0.6333    1.3582   -2.6486 N   0  0  0  0  0  0  0  0  0  0  0  0
   -1.9891    1.2908   -2.6503 C   0  0  0  0  0  0  0  0  0  0  0  0
   -2.6221    1.8682   -3.5776 O   0  0  0  0  0  0  0  0  0  0  0  0
    0.2586   -0.5861    0.3677 N   0  0  0  0  0  0  0  0  0  0  0  0
    1.0123   -1.8006    0.0034 C   0  0  0  0  0  0  0  0  0  0  0  0
    0.1068   -3.0513   -0.0124 C   0  0  0  0  0  0  0  0  0  0  0  0
    0.7651   -4.1758   -0.8222 C   0  0  0  0  0  0  0  0  0  0  0  0
   -0.1952   -3.5462    1.4081 C   0  0  0  0  0  0  0  0  0  0  0  0
    0.3799    0.0633    1.6564 C   0  0  0  0  0  0  0  0  0  0  0  0
   -0.2949    1.1035    1.8913 O   0  0  0  0  0  0  0  0  0  0  0  0
    1.3195   -0.4227    2.7307 C   0  0  0  0  0  0  0  0  0  0  0  0
    2.7133   -0.1003    2.3950 N   0  0  0  0  0  0  0  0  0  0  0  0
    3.7695   -1.0992    2.5938 C   0  0  0  0  0  0  0  0  0  0  0  0
    3.0872    1.2663    2.1392 C   0  0  0  0  0  0  0  0  0  0  0  0
    2.5961    2.1847    2.8507 O   0  0  0  0  0  0  0  0  0  0  0  0
    4.0240    1.6159    1.0479 C   0  0  0  0  0  0  0  0  0  0  0  0
    4.1237    0.8167   -0.1014 C   0  0  0  0  0  0  0  0  0  0  0  0
    4.9908    1.1774   -1.1343 C   0  0  0  0  0  0  0  0  0  0  0  0
    5.7515    2.3417   -1.0122 C   0  0  0  0  0  0  0  0  0  0  0  0
    5.6380    3.1144    0.1000 N   0  0  0  0  0  0  0  0  0  0  0  0
    4.7983    2.7856    1.1180 C   0  0  0  0  0  0  0  0  0  0  0  0
    5.1198    0.0971   -2.7035 Br  0  0  0  0  0  0  0  0  0  0  0  0
   -2.6086   -0.6957    0.4255 N   0  0  0  0  0  0  0  0  0  0  0  0
   -6.7622    1.5139   -1.5566 H   0  0  0  0  0  0  0  0  0  0  0  0
   -6.4727    0.3382   -0.2141 H   0  0  0  0  0  0  0  0  0  0  0  0
   -6.7037    2.0810    0.1589 H   0  0  0  0  0  0  0  0  0  0  0  0
   -4.3104    1.4460    0.3159 H   0  0  0  0  0  0  0  0  0  0  0  0
   -3.3746    3.2353   -1.1087 H   0  0  0  0  0  0  0  0  0  0  0  0
   -4.8579    3.2285   -2.1452 H   0  0  0  0  0  0  0  0  0  0  0  0
   -4.9459    3.7506   -0.4183 H   0  0  0  0  0  0  0  0  0  0  0  0
   -4.4935   -0.4550   -1.4629 H   0  0  0  0  0  0  0  0  0  0  0  0
   -4.5370    0.7709   -2.7002 H   0  0  0  0  0  0  0  0  0  0  0  0
   -0.1454    1.8848   -3.4095 H   0  0  0  0  0  0  0  0  0  0  0  0
    1.4531   -1.6566   -1.0070 H   0  0  0  0  0  0  0  0  0  0  0  0
    1.8767   -1.9679    0.6740 H   0  0  0  0  0  0  0  0  0  0  0  0
   -0.8547   -2.8000   -0.5110 H   0  0  0  0  0  0  0  0  0  0  0  0
    1.7462   -4.4541   -0.3803 H   0  0  0  0  0  0  0  0  0  0  0  0
    0.1102   -5.0732   -0.8384 H   0  0  0  0  0  0  0  0  0  0  0  0
    0.9237   -3.8505   -1.8726 H   0  0  0  0  0  0  0  0  0  0  0  0
    0.7411   -3.8477    1.9253 H   0  0  0  0  0  0  0  0  0  0  0  0
   -0.6919   -2.7561    2.0045 H   0  0  0  0  0  0  0  0  0  0  0  0
   -0.8783   -4.4215    1.3699 H   0  0  0  0  0  0  0  0  0  0  0  0
    1.0607    0.0611    3.6977 H   0  0  0  0  0  0  0  0  0  0  0  0
    1.1804   -1.5116    2.8812 H   0  0  0  0  0  0  0  0  0  0  0  0
    3.3624   -2.0470    3.0044 H   0  0  0  0  0  0  0  0  0  0  0  0
    4.2701   -1.3309    1.6329 H   0  0  0  0  0  0  0  0  0  0  0  0
    4.5239   -0.7112    3.3106 H   0  0  0  0  0  0  0  0  0  0  0  0
    3.5142   -0.0702   -0.2105 H   0  0  0  0  0  0  0  0  0  0  0  0
    6.4282    2.6371   -1.8029 H   0  0  0  0  0  0  0  0  0  0  0  0
    4.7424    3.4328    1.9838 H   0  0  0  0  0  0  0  0  0  0  0  0
   -3.6418   -0.8049    0.4885 H   0  0  0  0  0  0  0  0  0  0  0  0
   -2.0756   -1.1017    1.2219 H   0  0  0  0  0  0  0  0  0  0  0  0
  1  2  1  0
  2  3  1  0
  2  4  1  0
  4  5  1  0
  5  6  1  0
  6  7  2  0
  7  8  1  0
  8  9  2  0
  8 10  1  0
 10 11  1  0
 11 12  2  0
  7 13  1  0
 13 14  1  0
 14 15  1  0
 15 16  1  0
 15 17  1  0
 13 18  1  0
 18 19  2  0
 18 20  1  0
 20 21  1  0
 21 22  1  0
 21 23  1  0
 23 24  2  0
 23 25  1  0
 25 26  2  0
 26 27  1  0
 27 28  2  0
 28 29  1  0
 29 30  2  0
 27 31  1  0
  6 32  1  0
 11  5  1  0
 30 25  1  0
  1 33  1  0
  1 34  1  0
  1 35  1  0
  2 36  1  0
  3 37  1  0
  3 38  1  0
  3 39  1  0
  4 40  1  0
  4 41  1  0
 10 42  1  0
 14 43  1  0
 14 44  1  0
 15 45  1  0
 16 46  1  0
 16 47  1  0
 16 48  1  0
 17 49  1  0
 17 50  1  0
 17 51  1  0
 20 52  1  0
 20 53  1  0
 22 54  1  0
 22 55  1  0
 22 56  1  0
 26 57  1  0
 28 58  1  0
 30 59  1  0
 32 60  1  0
 32 61  1  0
M  END
$$$$
