
     RDKit          3D

 61 62  0  0  0  0  0  0  0  0999 V2000
   -4.5459   -2.6670   -0.9637 C   0  0  0  0  0  0  0  0  0  0  0  0
   -4.6823   -1.4371   -0.0564 C   0  0  0  0  0  0  0  0  0  0  0  0
   -6.1082   -1.3494    0.5004 C   0  0  0  0  0  0  0  0  0  0  0  0
   -4.3217   -0.1339   -0.8071 C   0  0  0  0  0  0  0  0  0  0  0  0
   -2.8816   -0.0804   -1.1485 N   0  0  0  0  0  0  0  0  0  0  0  0
   -1.9376    0.2906   -0.2100 C   0  0  0  0  0  0  0  0  0  0  0  0
   -0.5714    0.3562   -0.5750 C   0  0  0  0  0  0  0  0  0  0  0  0
   -0.2124   -0.0397   -1.8693 C   0  0  0  0  0  0  0  0  0  0  0  0
    0.9996   -0.0896   -2.2113 O   0  0  0  0  0  0  0  0  0  0  0  0
   -1.1672   -0.3979   -2.7590 N   0  0  0  0  0  0  0  0  0  0  0  0
   -2.4810   -0.4158   -2.4207 C   0  0  0  0  0  0  0  0  0  0  0  0
   -3.3260   -0.7578   -3.2943 O   0  0  0  0  0  0  0  0  0  0  0  0
    0.4505    0.7352    0.3784 N   0  0  0  0  0  0  0  0  0  0  0  0
    1.2935    1.9200    0.0937 C   0  0  0  0  0  0  0  0  0  0  0  0
    0.6651    3.2647    0.5291 C   0  0  0  0  0  0  0  0  0  0  0  0
    0.5189    3.3852    2.0491 C   0  0  0  0  0  0  0  0  0  0  0  0
   -0.6584    3.5674   -0.1840 C   0  0  0  0  0  0  0  0  0  0  0  0
    0.7712   -0.2084    1.4334 C   0  0  0  0  0  0  0  0  0  0  0  0
    0.1072   -1.2774    1.5322 O   0  0  0  0  0  0  0  0  0  0  0  0
    1.9062   -0.0034    2.4038 C   0  0  0  0  0  0  0  0  0  0  0  0
    3.1894   -0.3750    1.7925 N   0  0  0  0  0  0  0  0  0  0  0  0
    4.3587    0.5001    1.9279 C   0  0  0  0  0  0  0  0  0  0  0  0
    3.3756   -1.7087    1.2859 C   0  0  0  0  0  0  0  0  0  0  0  0
    2.9813   -2.6902    1.9727 O   0  0  0  0  0  0  0  0  0  0  0  0
    4.0015   -1.9474   -0.0340 C   0  0  0  0  0  0  0  0  0  0  0  0
    3.9402   -0.9782   -1.0473 C   0  0  0  0  0  0  0  0  0  0  0  0
    4.5123   -1.2303   -2.2956 C   0  0  0  0  0  0  0  0  0  0  0  0
    5.1390   -2.4566   -2.5246 C   0  0  0  0  0  0  0  0  0  0  0  0
    5.1821   -3.3924   -1.5401 N   0  0  0  0  0  0  0  0  0  0  0  0
    4.6304   -3.1712   -0.3169 C   0  0  0  0  0  0  0  0  0  0  0  0
    4.4251    0.0844   -3.6779 Br  0  0  0  0  0  0  0  0  0  0  0  0
   -2.3208    0.6212    1.1402 N   0  0  0  0  0  0  0  0  0  0  0  0
   -4.8467   -3.5846   -0.4145 H   0  0  0  0  0  0  0  0  0  0  0  0
   -3.4902   -2.7979   -1.2807 H   0  0  0  0  0  0  0  0  0  0  0  0
   -5.1872   -2.5642   -1.8653 H   0  0  0  0  0  0  0  0  0  0  0  0
   -3.9920   -1.5740    0.8032 H   0  0  0  0  0  0  0  0  0  0  0  0
   -6.8433   -1.2204   -0.3231 H   0  0  0  0  0  0  0  0  0  0  0  0
   -6.3589   -2.2732    1.0644 H   0  0  0  0  0  0  0  0  0  0  0  0
   -6.1947   -0.4887    1.1976 H   0  0  0  0  0  0  0  0  0  0  0  0
   -4.6016    0.7600   -0.2103 H   0  0  0  0  0  0  0  0  0  0  0  0
   -4.9591   -0.0451   -1.7142 H   0  0  0  0  0  0  0  0  0  0  0  0
   -0.8841   -0.6790   -3.7261 H   0  0  0  0  0  0  0  0  0  0  0  0
    2.2904    1.8254    0.5634 H   0  0  0  0  0  0  0  0  0  0  0  0
    1.5072    1.9837   -0.9932 H   0  0  0  0  0  0  0  0  0  0  0  0
    1.3791    4.0590    0.2152 H   0  0  0  0  0  0  0  0  0  0  0  0
   -0.1152    2.5743    2.4576 H   0  0  0  0  0  0  0  0  0  0  0  0
    1.5186    3.3441    2.5302 H   0  0  0  0  0  0  0  0  0  0  0  0
    0.0587    4.3614    2.3129 H   0  0  0  0  0  0  0  0  0  0  0  0
   -0.9142    4.6413   -0.0594 H   0  0  0  0  0  0  0  0  0  0  0  0
   -0.5735    3.3577   -1.2716 H   0  0  0  0  0  0  0  0  0  0  0  0
   -1.4884    2.9722    0.2409 H   0  0  0  0  0  0  0  0  0  0  0  0
    1.9131    1.0438    2.7602 H   0  0  0  0  0  0  0  0  0  0  0  0
    1.7400   -0.6336    3.3045 H   0  0  0  0  0  0  0  0  0  0  0  0
    5.1681   -0.0363    2.4670 H   0  0  0  0  0  0  0  0  0  0  0  0
    4.7314    0.8050    0.9297 H   0  0  0  0  0  0  0  0  0  0  0  0
    4.1156    1.4204    2.4992 H   0  0  0  0  0  0  0  0  0  0  0  0
    3.4329   -0.0376   -0.8803 H   0  0  0  0  0  0  0  0  0  0  0  0
    5.5872   -2.6696   -3.4860 H   0  0  0  0  0  0  0  0  0  0  0  0
    4.6906   -3.9473    0.4351 H   0  0  0  0  0  0  0  0  0  0  0  0
   -1.6252    0.9586    1.8371 H   0  0  0  0  0  0  0  0  0  0  0  0
   -3.2920    0.5274    1.5026 H   0  0  0  0  0  0  0  0  0  0  0  0
  1  2  1  0
  2  3  1  0
  2  4  1  0
  4  5  1  0
  5  6  1  0
  6  7  2  0
  7  8  1  0
  8  9  2  0
  8 10  1  0
 10 11  1  0
 11 12  2  0
  7 13  1  0
 13 14  1  0
 14 15  1  0
 15 16  1  0
 15 17  1  0
 13 18  1  0
 18 19  2  0
 18 20  1  0
 20 21  1  0
 21 22  1  0
 21 23  1  0
 23 24  2  0
 23 25  1  0
 25 26  2  0
 26 27  1  0
 27 28  2  0
 28 29  1  0
 29 30  2  0
 27 31  1  0
  6 32  1  0
 11  5  1  0
 30 25  1  0
  1 33  1  0
  1 34  1  0
  1 35  1  0
  2 36  1  0
  3 37  1  0
  3 38  1  0
  3 39  1  0
  4 40  1  0
  4 41  1  0
 10 42  1  0
 14 43  1  0
 14 44  1  0
 15 45  1  0
 16 46  1  0
 16 47  1  0
 16 48  1  0
 17 49  1  0
 17 50  1  0
 17 51  1  0
 20 52  1  0
 20 53  1  0
 22 54  1  0
 22 55  1  0
 22 56  1  0
 26 57  1  0
 28 58  1  0
 30 59  1  0
 32 60  1  0
 32 61  1  0
M  END
$$$$
