
     RDKit          3D

 61 62  0  0  0  0  0  0  0  0999 V2000
   -5.5889    2.6900   -2.5844 C   0  0  0  0  0  0  0  0  0  0  0  0
   -4.6531    1.9978   -1.5859 C   0  0  0  0  0  0  0  0  0  0  0  0
   -3.3872    2.8397   -1.3837 C   0  0  0  0  0  0  0  0  0  0  0  0
   -4.3342    0.5598   -2.0593 C   0  0  0  0  0  0  0  0  0  0  0  0
   -3.5826   -0.2045   -1.0363 N   0  0  0  0  0  0  0  0  0  0  0  0
   -2.2166   -0.4033   -1.1192 C   0  0  0  0  0  0  0  0  0  0  0  0
   -1.5663   -1.1881   -0.1448 C   0  0  0  0  0  0  0  0  0  0  0  0
   -2.3134   -1.6946    0.9195 C   0  0  0  0  0  0  0  0  0  0  0  0
   -1.7545   -2.3660    1.8285 O   0  0  0  0  0  0  0  0  0  0  0  0
   -3.6453   -1.4617    0.9804 N   0  0  0  0  0  0  0  0  0  0  0  0
   -4.2817   -0.7394    0.0223 C   0  0  0  0  0  0  0  0  0  0  0  0
   -5.5289   -0.5679    0.1212 O   0  0  0  0  0  0  0  0  0  0  0  0
   -0.1499   -1.4375   -0.2167 N   0  0  0  0  0  0  0  0  0  0  0  0
    0.3262   -2.5108   -1.1081 C   0  0  0  0  0  0  0  0  0  0  0  0
    0.1611   -3.9031   -0.4635 C   0  0  0  0  0  0  0  0  0  0  0  0
    1.0657   -4.0725    0.7642 C   0  0  0  0  0  0  0  0  0  0  0  0
    0.4617   -5.0019   -1.4902 C   0  0  0  0  0  0  0  0  0  0  0  0
    0.7411   -0.6129    0.5681 C   0  0  0  0  0  0  0  0  0  0  0  0
    0.2621    0.1269    1.4723 O   0  0  0  0  0  0  0  0  0  0  0  0
    2.2288   -0.5921    0.3140 C   0  0  0  0  0  0  0  0  0  0  0  0
    2.9123    0.3830    1.1741 N   0  0  0  0  0  0  0  0  0  0  0  0
    3.2611    0.0072    2.5488 C   0  0  0  0  0  0  0  0  0  0  0  0
    3.0098    1.7598    0.7549 C   0  0  0  0  0  0  0  0  0  0  0  0
    2.1420    2.2344   -0.0283 O   0  0  0  0  0  0  0  0  0  0  0  0
    4.1015    2.6381    1.2261 C   0  0  0  0  0  0  0  0  0  0  0  0
    5.4146    2.1586    1.3436 C   0  0  0  0  0  0  0  0  0  0  0  0
    6.4346    3.0101    1.7746 C   0  0  0  0  0  0  0  0  0  0  0  0
    6.1336    4.3410    2.0721 C   0  0  0  0  0  0  0  0  0  0  0  0
    4.8610    4.7979    1.9343 N   0  0  0  0  0  0  0  0  0  0  0  0
    3.8513    3.9883    1.5169 C   0  0  0  0  0  0  0  0  0  0  0  0
    8.2239    2.3644    1.9423 Br  0  0  0  0  0  0  0  0  0  0  0  0
   -1.4235    0.2004   -2.1609 N   0  0  0  0  0  0  0  0  0  0  0  0
   -5.1073    2.7686   -3.5829 H   0  0  0  0  0  0  0  0  0  0  0  0
   -5.8449    3.7107   -2.2280 H   0  0  0  0  0  0  0  0  0  0  0  0
   -6.5343    2.1156   -2.6863 H   0  0  0  0  0  0  0  0  0  0  0  0
   -5.1848    1.9442   -0.6110 H   0  0  0  0  0  0  0  0  0  0  0  0
   -2.8454    2.9745   -2.3434 H   0  0  0  0  0  0  0  0  0  0  0  0
   -3.6586    3.8433   -0.9920 H   0  0  0  0  0  0  0  0  0  0  0  0
   -2.7136    2.3619   -0.6422 H   0  0  0  0  0  0  0  0  0  0  0  0
   -3.8292    0.5631   -3.0443 H   0  0  0  0  0  0  0  0  0  0  0  0
   -5.2920    0.0339   -2.2715 H   0  0  0  0  0  0  0  0  0  0  0  0
   -4.1962   -1.8509    1.7800 H   0  0  0  0  0  0  0  0  0  0  0  0
   -0.2638   -2.4805   -2.0508 H   0  0  0  0  0  0  0  0  0  0  0  0
    1.3821   -2.3552   -1.4091 H   0  0  0  0  0  0  0  0  0  0  0  0
   -0.8955   -4.0277   -0.1419 H   0  0  0  0  0  0  0  0  0  0  0  0
    0.8988   -5.0693    1.2252 H   0  0  0  0  0  0  0  0  0  0  0  0
    0.8358   -3.3038    1.5305 H   0  0  0  0  0  0  0  0  0  0  0  0
    2.1356   -3.9897    0.4772 H   0  0  0  0  0  0  0  0  0  0  0  0
    0.3166   -6.0045   -1.0339 H   0  0  0  0  0  0  0  0  0  0  0  0
    1.5083   -4.9218   -1.8555 H   0  0  0  0  0  0  0  0  0  0  0  0
   -0.2282   -4.9170   -2.3568 H   0  0  0  0  0  0  0  0  0  0  0  0
    2.4146   -0.3399   -0.7526 H   0  0  0  0  0  0  0  0  0  0  0  0
    2.6520   -1.6018    0.4937 H   0  0  0  0  0  0  0  0  0  0  0  0
    2.8606   -0.9982    2.8013 H   0  0  0  0  0  0  0  0  0  0  0  0
    4.3614   -0.0221    2.6740 H   0  0  0  0  0  0  0  0  0  0  0  0
    2.8270    0.7386    3.2632 H   0  0  0  0  0  0  0  0  0  0  0  0
    5.6518    1.1358    1.0798 H   0  0  0  0  0  0  0  0  0  0  0  0
    6.9112    5.0150    2.4060 H   0  0  0  0  0  0  0  0  0  0  0  0
    2.8524    4.3951    1.4237 H   0  0  0  0  0  0  0  0  0  0  0  0
   -0.4030    0.0028   -2.2491 H   0  0  0  0  0  0  0  0  0  0  0  0
   -1.7778    0.9384   -2.8014 H   0  0  0  0  0  0  0  0  0  0  0  0
  1  2  1  0
  2  3  1  0
  2  4  1  0
  4  5  1  0
  5  6  1  0
  6  7  2  0
  7  8  1  0
  8  9  2  0
  8 10  1  0
 10 11  1  0
 11 12  2  0
  7 13  1  0
 13 14  1  0
 14 15  1  0
 15 16  1  0
 15 17  1  0
 13 18  1  0
 18 19  2  0
 18 20  1  0
 20 21  1  0
 21 22  1  0
 21 23  1  0
 23 24  2  0
 23 25  1  0
 25 26  2  0
 26 27  1  0
 27 28  2  0
 28 29  1  0
 29 30  2  0
 27 31  1  0
  6 32  1  0
 11  5  1  0
 30 25  1  0
  1 33  1  0
  1 34  1  0
  1 35  1  0
  2 36  1  0
  3 37  1  0
  3 38  1  0
  3 39  1  0
  4 40  1  0
  4 41  1  0
 10 42  1  0
 14 43  1  0
 14 44  1  0
 15 45  1  0
 16 46  1  0
 16 47  1  0
 16 48  1  0
 17 49  1  0
 17 50  1  0
 17 51  1  0
 20 52  1  0
 20 53  1  0
 22 54  1  0
 22 55  1  0
 22 56  1  0
 26 57  1  0
 28 58  1  0
 30 59  1  0
 32 60  1  0
 32 61  1  0
M  END
$$$$
