
     RDKit          3D

 61 62  0  0  0  0  0  0  0  0999 V2000
   -6.1717    1.4005   -0.5861 C   0  0  0  0  0  0  0  0  0  0  0  0
   -4.7958    1.2783    0.0789 C   0  0  0  0  0  0  0  0  0  0  0  0
   -4.8983    1.6190    1.5715 C   0  0  0  0  0  0  0  0  0  0  0  0
   -3.7724    2.1872   -0.6407 C   0  0  0  0  0  0  0  0  0  0  0  0
   -2.3945    1.9482   -0.1527 N   0  0  0  0  0  0  0  0  0  0  0  0
   -1.6732    0.8422   -0.5608 C   0  0  0  0  0  0  0  0  0  0  0  0
   -0.3863    0.6057   -0.0221 C   0  0  0  0  0  0  0  0  0  0  0  0
    0.1546    1.5606    0.8467 C   0  0  0  0  0  0  0  0  0  0  0  0
    1.3326    1.4396    1.2780 O   0  0  0  0  0  0  0  0  0  0  0  0
   -0.5800    2.6358    1.2150 N   0  0  0  0  0  0  0  0  0  0  0  0
   -1.8370    2.8310    0.7431 C   0  0  0  0  0  0  0  0  0  0  0  0
   -2.4825    3.8402    1.1416 O   0  0  0  0  0  0  0  0  0  0  0  0
    0.3892   -0.5579   -0.3948 N   0  0  0  0  0  0  0  0  0  0  0  0
    0.7719   -1.5281    0.6573 C   0  0  0  0  0  0  0  0  0  0  0  0
   -0.3196   -2.5753    0.9819 C   0  0  0  0  0  0  0  0  0  0  0  0
   -1.6135   -1.9507    1.5194 C   0  0  0  0  0  0  0  0  0  0  0  0
   -0.6024   -3.5171   -0.1926 C   0  0  0  0  0  0  0  0  0  0  0  0
    0.9780   -0.5796   -1.7207 C   0  0  0  0  0  0  0  0  0  0  0  0
    0.7514    0.3746   -2.5153 O   0  0  0  0  0  0  0  0  0  0  0  0
    1.8977   -1.6758   -2.1940 C   0  0  0  0  0  0  0  0  0  0  0  0
    3.2638   -1.4612   -1.6979 N   0  0  0  0  0  0  0  0  0  0  0  0
    4.0223   -2.5666   -1.1032 C   0  0  0  0  0  0  0  0  0  0  0  0
    3.9542   -0.2416   -2.0225 C   0  0  0  0  0  0  0  0  0  0  0  0
    3.9128    0.1949   -3.2050 O   0  0  0  0  0  0  0  0  0  0  0  0
    4.6927    0.5194   -0.9898 C   0  0  0  0  0  0  0  0  0  0  0  0
    4.3350    0.4313    0.3646 C   0  0  0  0  0  0  0  0  0  0  0  0
    5.0243    1.1767    1.3229 C   0  0  0  0  0  0  0  0  0  0  0  0
    6.0668    2.0124    0.9179 C   0  0  0  0  0  0  0  0  0  0  0  0
    6.3969    2.0989   -0.3975 N   0  0  0  0  0  0  0  0  0  0  0  0
    5.7391    1.3846   -1.3497 C   0  0  0  0  0  0  0  0  0  0  0  0
    4.5355    1.0632    3.1654 Br  0  0  0  0  0  0  0  0  0  0  0  0
   -2.2138   -0.0866   -1.5226 N   0  0  0  0  0  0  0  0  0  0  0  0
   -6.5476    2.4443   -0.5206 H   0  0  0  0  0  0  0  0  0  0  0  0
   -6.1069    1.1082   -1.6560 H   0  0  0  0  0  0  0  0  0  0  0  0
   -6.9003    0.7245   -0.0897 H   0  0  0  0  0  0  0  0  0  0  0  0
   -4.4742    0.2181   -0.0040 H   0  0  0  0  0  0  0  0  0  0  0  0
   -5.6632    0.9782    2.0599 H   0  0  0  0  0  0  0  0  0  0  0  0
   -3.9288    1.4291    2.0782 H   0  0  0  0  0  0  0  0  0  0  0  0
   -5.1806    2.6842    1.7134 H   0  0  0  0  0  0  0  0  0  0  0  0
   -4.0747    3.2494   -0.5100 H   0  0  0  0  0  0  0  0  0  0  0  0
   -3.8151    2.0439   -1.7408 H   0  0  0  0  0  0  0  0  0  0  0  0
   -0.1680    3.3327    1.8776 H   0  0  0  0  0  0  0  0  0  0  0  0
    1.0187   -0.9922    1.5972 H   0  0  0  0  0  0  0  0  0  0  0  0
    1.7046   -2.0602    0.3924 H   0  0  0  0  0  0  0  0  0  0  0  0
    0.0886   -3.2060    1.8033 H   0  0  0  0  0  0  0  0  0  0  0  0
   -2.2177   -1.5123    0.7029 H   0  0  0  0  0  0  0  0  0  0  0  0
   -2.2304   -2.7327    2.0113 H   0  0  0  0  0  0  0  0  0  0  0  0
   -1.3871   -1.1664    2.2729 H   0  0  0  0  0  0  0  0  0  0  0  0
   -0.9398   -2.9551   -1.0854 H   0  0  0  0  0  0  0  0  0  0  0  0
   -1.3918   -4.2479    0.0849 H   0  0  0  0  0  0  0  0  0  0  0  0
    0.3132   -4.0911   -0.4472 H   0  0  0  0  0  0  0  0  0  0  0  0
    1.5011   -2.6607   -1.8828 H   0  0  0  0  0  0  0  0  0  0  0  0
    1.9153   -1.6883   -3.3056 H   0  0  0  0  0  0  0  0  0  0  0  0
    3.4240   -3.5012   -1.0712 H   0  0  0  0  0  0  0  0  0  0  0  0
    4.9348   -2.7619   -1.7054 H   0  0  0  0  0  0  0  0  0  0  0  0
    4.3223   -2.3157   -0.0661 H   0  0  0  0  0  0  0  0  0  0  0  0
    3.5113   -0.1961    0.6774 H   0  0  0  0  0  0  0  0  0  0  0  0
    6.6116    2.5978    1.6465 H   0  0  0  0  0  0  0  0  0  0  0  0
    6.0391    1.4870   -2.3846 H   0  0  0  0  0  0  0  0  0  0  0  0
   -1.6707   -0.9120   -1.8496 H   0  0  0  0  0  0  0  0  0  0  0  0
   -3.1655   -0.0014   -1.9352 H   0  0  0  0  0  0  0  0  0  0  0  0
  1  2  1  0
  2  3  1  0
  2  4  1  0
  4  5  1  0
  5  6  1  0
  6  7  2  0
  7  8  1  0
  8  9  2  0
  8 10  1  0
 10 11  1  0
 11 12  2  0
  7 13  1  0
 13 14  1  0
 14 15  1  0
 15 16  1  0
 15 17  1  0
 13 18  1  0
 18 19  2  0
 18 20  1  0
 20 21  1  0
 21 22  1  0
 21 23  1  0
 23 24  2  0
 23 25  1  0
 25 26  2  0
 26 27  1  0
 27 28  2  0
 28 29  1  0
 29 30  2  0
 27 31  1  0
  6 32  1  0
 11  5  1  0
 30 25  1  0
  1 33  1  0
  1 34  1  0
  1 35  1  0
  2 36  1  0
  3 37  1  0
  3 38  1  0
  3 39  1  0
  4 40  1  0
  4 41  1  0
 10 42  1  0
 14 43  1  0
 14 44  1  0
 15 45  1  0
 16 46  1  0
 16 47  1  0
 16 48  1  0
 17 49  1  0
 17 50  1  0
 17 51  1  0
 20 52  1  0
 20 53  1  0
 22 54  1  0
 22 55  1  0
 22 56  1  0
 26 57  1  0
 28 58  1  0
 30 59  1  0
 32 60  1  0
 32 61  1  0
M  END
$$$$
