
     RDKit          3D

 61 62  0  0  0  0  0  0  0  0999 V2000
   -6.5530    0.2602    2.8356 C   0  0  0  0  0  0  0  0  0  0  0  0
   -5.5210   -0.0024    1.7322 C   0  0  0  0  0  0  0  0  0  0  0  0
   -5.1896    1.3050    1.0022 C   0  0  0  0  0  0  0  0  0  0  0  0
   -4.2636   -0.6808    2.3258 C   0  0  0  0  0  0  0  0  0  0  0  0
   -3.3117   -1.1007    1.2704 N   0  0  0  0  0  0  0  0  0  0  0  0
   -2.1736   -0.3739    0.9713 C   0  0  0  0  0  0  0  0  0  0  0  0
   -1.2842   -0.8463   -0.0195 C   0  0  0  0  0  0  0  0  0  0  0  0
   -1.5839   -2.0424   -0.6747 C   0  0  0  0  0  0  0  0  0  0  0  0
   -0.7963   -2.5084   -1.5423 O   0  0  0  0  0  0  0  0  0  0  0  0
   -2.7190   -2.7138   -0.3712 N   0  0  0  0  0  0  0  0  0  0  0  0
   -3.5740   -2.2637    0.5826 C   0  0  0  0  0  0  0  0  0  0  0  0
   -4.6122   -2.9379    0.8321 O   0  0  0  0  0  0  0  0  0  0  0  0
   -0.0688   -0.1391   -0.3402 N   0  0  0  0  0  0  0  0  0  0  0  0
    0.0582    0.4819   -1.6703 C   0  0  0  0  0  0  0  0  0  0  0  0
   -0.1812    2.0081   -1.6076 C   0  0  0  0  0  0  0  0  0  0  0  0
   -1.6790    2.3395   -1.6609 C   0  0  0  0  0  0  0  0  0  0  0  0
    0.5471    2.7140   -2.7581 C   0  0  0  0  0  0  0  0  0  0  0  0
    1.0256   -0.1748    0.6092 C   0  0  0  0  0  0  0  0  0  0  0  0
    0.9160   -0.8774    1.6518 O   0  0  0  0  0  0  0  0  0  0  0  0
    2.2922    0.6263    0.4337 C   0  0  0  0  0  0  0  0  0  0  0  0
    3.4692   -0.2462    0.5189 N   0  0  0  0  0  0  0  0  0  0  0  0
    4.1163   -0.4792    1.8146 C   0  0  0  0  0  0  0  0  0  0  0  0
    3.8618   -1.0284   -0.6254 C   0  0  0  0  0  0  0  0  0  0  0  0
    2.9756   -1.5108   -1.3819 O   0  0  0  0  0  0  0  0  0  0  0  0
    5.2852   -1.2847   -0.9330 C   0  0  0  0  0  0  0  0  0  0  0  0
    6.2626   -0.3067   -0.6941 C   0  0  0  0  0  0  0  0  0  0  0  0
    7.5996   -0.5617   -1.0074 C   0  0  0  0  0  0  0  0  0  0  0  0
    7.9470   -1.7916   -1.5704 C   0  0  0  0  0  0  0  0  0  0  0  0
    6.9880   -2.7231   -1.8143 N   0  0  0  0  0  0  0  0  0  0  0  0
    5.6800   -2.4985   -1.5178 C   0  0  0  0  0  0  0  0  0  0  0  0
    8.9364    0.7624   -0.6811 Br  0  0  0  0  0  0  0  0  0  0  0  0
   -1.8799    0.8748    1.6299 N   0  0  0  0  0  0  0  0  0  0  0  0
   -6.1386    0.9481    3.6039 H   0  0  0  0  0  0  0  0  0  0  0  0
   -6.8416   -0.6938    3.3264 H   0  0  0  0  0  0  0  0  0  0  0  0
   -7.4705    0.7147    2.4042 H   0  0  0  0  0  0  0  0  0  0  0  0
   -5.9865   -0.6935    0.9962 H   0  0  0  0  0  0  0  0  0  0  0  0
   -4.7674    2.0539    1.7046 H   0  0  0  0  0  0  0  0  0  0  0  0
   -6.1110    1.7306    0.5504 H   0  0  0  0  0  0  0  0  0  0  0  0
   -4.4686    1.1207    0.1793 H   0  0  0  0  0  0  0  0  0  0  0  0
   -4.5824   -1.5778    2.9028 H   0  0  0  0  0  0  0  0  0  0  0  0
   -3.7903   -0.0451    3.0984 H   0  0  0  0  0  0  0  0  0  0  0  0
   -2.9352   -3.6053   -0.8741 H   0  0  0  0  0  0  0  0  0  0  0  0
    1.0585    0.2472   -2.0909 H   0  0  0  0  0  0  0  0  0  0  0  0
   -0.6610    0.0248   -2.3857 H   0  0  0  0  0  0  0  0  0  0  0  0
    0.2270    2.4092   -0.6543 H   0  0  0  0  0  0  0  0  0  0  0  0
   -1.8320    3.4350   -1.5582 H   0  0  0  0  0  0  0  0  0  0  0  0
   -2.2203    1.8417   -0.8341 H   0  0  0  0  0  0  0  0  0  0  0  0
   -2.1220    2.0061   -2.6240 H   0  0  0  0  0  0  0  0  0  0  0  0
    1.6413    2.5362   -2.6860 H   0  0  0  0  0  0  0  0  0  0  0  0
    0.1860    2.3375   -3.7394 H   0  0  0  0  0  0  0  0  0  0  0  0
    0.3751    3.8105   -2.7076 H   0  0  0  0  0  0  0  0  0  0  0  0
    2.3261    1.1866   -0.5195 H   0  0  0  0  0  0  0  0  0  0  0  0
    2.3291    1.3974    1.2329 H   0  0  0  0  0  0  0  0  0  0  0  0
    4.1585   -1.5692    2.0236 H   0  0  0  0  0  0  0  0  0  0  0  0
    5.1448   -0.0671    1.8136 H   0  0  0  0  0  0  0  0  0  0  0  0
    3.5519    0.0061    2.6390 H   0  0  0  0  0  0  0  0  0  0  0  0
    5.9871    0.6580   -0.2870 H   0  0  0  0  0  0  0  0  0  0  0  0
    8.9775   -2.0059   -1.8206 H   0  0  0  0  0  0  0  0  0  0  0  0
    4.9514   -3.2711   -1.7278 H   0  0  0  0  0  0  0  0  0  0  0  0
   -2.5739    1.4050    2.1935 H   0  0  0  0  0  0  0  0  0  0  0  0
   -0.9828    1.3797    1.4650 H   0  0  0  0  0  0  0  0  0  0  0  0
  1  2  1  0
  2  3  1  0
  2  4  1  0
  4  5  1  0
  5  6  1  0
  6  7  2  0
  7  8  1  0
  8  9  2  0
  8 10  1  0
 10 11  1  0
 11 12  2  0
  7 13  1  0
 13 14  1  0
 14 15  1  0
 15 16  1  0
 15 17  1  0
 13 18  1  0
 18 19  2  0
 18 20  1  0
 20 21  1  0
 21 22  1  0
 21 23  1  0
 23 24  2  0
 23 25  1  0
 25 26  2  0
 26 27  1  0
 27 28  2  0
 28 29  1  0
 29 30  2  0
 27 31  1  0
  6 32  1  0
 11  5  1  0
 30 25  1  0
  1 33  1  0
  1 34  1  0
  1 35  1  0
  2 36  1  0
  3 37  1  0
  3 38  1  0
  3 39  1  0
  4 40  1  0
  4 41  1  0
 10 42  1  0
 14 43  1  0
 14 44  1  0
 15 45  1  0
 16 46  1  0
 16 47  1  0
 16 48  1  0
 17 49  1  0
 17 50  1  0
 17 51  1  0
 20 52  1  0
 20 53  1  0
 22 54  1  0
 22 55  1  0
 22 56  1  0
 26 57  1  0
 28 58  1  0
 30 59  1  0
 32 60  1  0
 32 61  1  0
M  END
$$$$
