
     RDKit          3D

 61 62  0  0  0  0  0  0  0  0999 V2000
   -4.2895    3.2082   -0.7937 C   0  0  0  0  0  0  0  0  0  0  0  0
   -4.0773    2.6189    0.6070 C   0  0  0  0  0  0  0  0  0  0  0  0
   -4.8364    3.4495    1.6484 C   0  0  0  0  0  0  0  0  0  0  0  0
   -4.5253    1.1405    0.6744 C   0  0  0  0  0  0  0  0  0  0  0  0
   -3.6652    0.2697   -0.1592 N   0  0  0  0  0  0  0  0  0  0  0  0
   -2.4200   -0.1367    0.2803 C   0  0  0  0  0  0  0  0  0  0  0  0
   -1.6283   -0.9684   -0.5367 C   0  0  0  0  0  0  0  0  0  0  0  0
   -2.1118   -1.3314   -1.7947 C   0  0  0  0  0  0  0  0  0  0  0  0
   -1.4177   -2.0532   -2.5607 O   0  0  0  0  0  0  0  0  0  0  0  0
   -3.3328   -0.9068   -2.1971 N   0  0  0  0  0  0  0  0  0  0  0  0
   -4.1073   -0.1234   -1.4024 C   0  0  0  0  0  0  0  0  0  0  0  0
   -5.2370    0.2431   -1.8306 O   0  0  0  0  0  0  0  0  0  0  0  0
   -0.3383   -1.4309   -0.0947 N   0  0  0  0  0  0  0  0  0  0  0  0
   -0.2855   -2.5761    0.8319 C   0  0  0  0  0  0  0  0  0  0  0  0
   -0.4606   -3.9172    0.0894 C   0  0  0  0  0  0  0  0  0  0  0  0
   -0.6187   -5.0637    1.0956 C   0  0  0  0  0  0  0  0  0  0  0  0
    0.7186   -4.2038   -0.8496 C   0  0  0  0  0  0  0  0  0  0  0  0
    0.8453   -0.7542   -0.5744 C   0  0  0  0  0  0  0  0  0  0  0  0
    0.7590    0.0053   -1.5793 O   0  0  0  0  0  0  0  0  0  0  0  0
    2.1827   -0.9267    0.1021 C   0  0  0  0  0  0  0  0  0  0  0  0
    3.1761    0.0195   -0.4200 N   0  0  0  0  0  0  0  0  0  0  0  0
    4.0535   -0.4092   -1.5132 C   0  0  0  0  0  0  0  0  0  0  0  0
    3.2218    1.3668    0.0945 C   0  0  0  0  0  0  0  0  0  0  0  0
    2.1551    1.9152    0.4856 O   0  0  0  0  0  0  0  0  0  0  0  0
    4.4917    2.1227    0.1906 C   0  0  0  0  0  0  0  0  0  0  0  0
    5.7054    1.4710    0.4610 C   0  0  0  0  0  0  0  0  0  0  0  0
    6.8887    2.2062    0.5613 C   0  0  0  0  0  0  0  0  0  0  0  0
    6.8473    3.5928    0.4017 C   0  0  0  0  0  0  0  0  0  0  0  0
    5.6637    4.2142    0.1577 N   0  0  0  0  0  0  0  0  0  0  0  0
    4.4986    3.5206    0.0553 C   0  0  0  0  0  0  0  0  0  0  0  0
    8.5438    1.3256    0.9242 Br  0  0  0  0  0  0  0  0  0  0  0  0
   -1.8938    0.2907    1.5530 N   0  0  0  0  0  0  0  0  0  0  0  0
   -3.6585    2.6764   -1.5362 H   0  0  0  0  0  0  0  0  0  0  0  0
   -5.3553    3.1271   -1.0974 H   0  0  0  0  0  0  0  0  0  0  0  0
   -3.9944    4.2791   -0.8086 H   0  0  0  0  0  0  0  0  0  0  0  0
   -2.9942    2.6897    0.8438 H   0  0  0  0  0  0  0  0  0  0  0  0
   -4.4944    4.5062    1.6216 H   0  0  0  0  0  0  0  0  0  0  0  0
   -5.9299    3.4206    1.4517 H   0  0  0  0  0  0  0  0  0  0  0  0
   -4.6441    3.0532    2.6683 H   0  0  0  0  0  0  0  0  0  0  0  0
   -4.5301    0.7739    1.7225 H   0  0  0  0  0  0  0  0  0  0  0  0
   -5.5931    1.0681    0.3722 H   0  0  0  0  0  0  0  0  0  0  0  0
   -3.6861   -1.1880   -3.1407 H   0  0  0  0  0  0  0  0  0  0  0  0
   -1.1021   -2.4695    1.5797 H   0  0  0  0  0  0  0  0  0  0  0  0
    0.6576   -2.5889    1.4147 H   0  0  0  0  0  0  0  0  0  0  0  0
   -1.3912   -3.8745   -0.5170 H   0  0  0  0  0  0  0  0  0  0  0  0
   -1.5037   -4.8868    1.7434 H   0  0  0  0  0  0  0  0  0  0  0  0
   -0.7723   -6.0257    0.5613 H   0  0  0  0  0  0  0  0  0  0  0  0
    0.2845   -5.1497    1.7375 H   0  0  0  0  0  0  0  0  0  0  0  0
    0.8158   -3.4042   -1.6125 H   0  0  0  0  0  0  0  0  0  0  0  0
    0.5548   -5.1630   -1.3854 H   0  0  0  0  0  0  0  0  0  0  0  0
    1.6677   -4.2748   -0.2765 H   0  0  0  0  0  0  0  0  0  0  0  0
    2.5367   -1.9671   -0.0565 H   0  0  0  0  0  0  0  0  0  0  0  0
    2.0711   -0.7715    1.1969 H   0  0  0  0  0  0  0  0  0  0  0  0
    3.4598   -0.9374   -2.2892 H   0  0  0  0  0  0  0  0  0  0  0  0
    4.5457    0.4602   -1.9984 H   0  0  0  0  0  0  0  0  0  0  0  0
    4.8285   -1.1010   -1.1226 H   0  0  0  0  0  0  0  0  0  0  0  0
    5.7334    0.4000    0.6139 H   0  0  0  0  0  0  0  0  0  0  0  0
    7.7539    4.1783    0.4773 H   0  0  0  0  0  0  0  0  0  0  0  0
    3.5808    4.0593   -0.1431 H   0  0  0  0  0  0  0  0  0  0  0  0
   -2.4306    0.8677    2.2330 H   0  0  0  0  0  0  0  0  0  0  0  0
   -0.9161    0.0636    1.8385 H   0  0  0  0  0  0  0  0  0  0  0  0
  1  2  1  0
  2  3  1  0
  2  4  1  0
  4  5  1  0
  5  6  1  0
  6  7  2  0
  7  8  1  0
  8  9  2  0
  8 10  1  0
 10 11  1  0
 11 12  2  0
  7 13  1  0
 13 14  1  0
 14 15  1  0
 15 16  1  0
 15 17  1  0
 13 18  1  0
 18 19  2  0
 18 20  1  0
 20 21  1  0
 21 22  1  0
 21 23  1  0
 23 24  2  0
 23 25  1  0
 25 26  2  0
 26 27  1  0
 27 28  2  0
 28 29  1  0
 29 30  2  0
 27 31  1  0
  6 32  1  0
 11  5  1  0
 30 25  1  0
  1 33  1  0
  1 34  1  0
  1 35  1  0
  2 36  1  0
  3 37  1  0
  3 38  1  0
  3 39  1  0
  4 40  1  0
  4 41  1  0
 10 42  1  0
 14 43  1  0
 14 44  1  0
 15 45  1  0
 16 46  1  0
 16 47  1  0
 16 48  1  0
 17 49  1  0
 17 50  1  0
 17 51  1  0
 20 52  1  0
 20 53  1  0
 22 54  1  0
 22 55  1  0
 22 56  1  0
 26 57  1  0
 28 58  1  0
 30 59  1  0
 32 60  1  0
 32 61  1  0
M  END
$$$$
