
     RDKit          3D

 67 69  0  0  0  0  0  0  0  0999 V2000
  -10.4051    1.4384    0.4716 C   0  0  0  0  0  0  0  0  0  0  0  0
  -10.2519    0.1432    1.2684 C   0  0  0  0  0  0  0  0  0  0  0  0
   -9.4169    0.3248    2.5469 C   0  0  0  0  0  0  0  0  0  0  0  0
   -7.9388    0.6161    2.2729 C   0  0  0  0  0  0  0  0  0  0  0  0
   -7.3611   -0.4450    1.5154 O   0  0  0  0  0  0  0  0  0  0  0  0
   -6.0236   -0.4838    1.0954 C   0  0  0  0  0  0  0  0  0  0  0  0
   -5.5951   -1.5824    0.3443 C   0  0  0  0  0  0  0  0  0  0  0  0
   -4.2727   -1.6694   -0.0997 C   0  0  0  0  0  0  0  0  0  0  0  0
   -3.3490   -0.6518    0.2019 C   0  0  0  0  0  0  0  0  0  0  0  0
   -3.7823    0.4527    0.9585 C   0  0  0  0  0  0  0  0  0  0  0  0
   -5.1057    0.5372    1.4014 C   0  0  0  0  0  0  0  0  0  0  0  0
   -1.9444   -0.7421   -0.2680 C   0  0  0  0  0  0  0  0  0  0  0  0
   -1.5295   -1.8135   -0.9916 N   0  0  0  0  0  0  0  0  0  0  0  0
   -0.2514   -1.9301   -1.4383 C   0  0  0  0  0  0  0  0  0  0  0  0
    0.6892   -0.9162   -1.1380 C   0  0  0  0  0  0  0  0  0  0  0  0
    0.2327    0.1924   -0.3907 C   0  0  0  0  0  0  0  0  0  0  0  0
   -1.0591    0.2456    0.0207 N   0  0  0  0  0  0  0  0  0  0  0  0
    1.3191    1.5423    0.0908 S   0  0  0  0  0  0  0  0  0  0  0  0
    1.9054    0.7429    1.6227 C   0  0  0  0  0  0  0  0  0  0  0  0
    3.3653    1.0196    1.7735 C   0  0  0  0  0  0  0  0  0  0  0  0
    3.7444    2.0024    2.4661 O   0  0  0  0  0  0  0  0  0  0  0  0
    4.3218    0.1801    1.1099 N   0  0  0  0  0  0  0  0  0  0  0  0
    5.6621    0.5850    0.7845 C   0  0  0  0  0  0  0  0  0  0  0  0
    5.9743    1.9247    0.4944 C   0  0  0  0  0  0  0  0  0  0  0  0
    7.2764    2.2842    0.1354 C   0  0  0  0  0  0  0  0  0  0  0  0
    8.2833    1.3168    0.0455 C   0  0  0  0  0  0  0  0  0  0  0  0
    7.9680   -0.0281    0.3156 C   0  0  0  0  0  0  0  0  0  0  0  0
    6.6656   -0.3879    0.6739 C   0  0  0  0  0  0  0  0  0  0  0  0
    9.5737    1.7291   -0.3184 O   0  0  0  0  0  0  0  0  0  0  0  0
   10.6892    0.8543   -0.4515 C   0  0  0  0  0  0  0  0  0  0  0  0
    2.1041   -1.0162   -1.5754 C   0  0  0  0  0  0  0  0  0  0  0  0
    2.7087   -2.1210   -1.5046 O   0  0  0  0  0  0  0  0  0  0  0  0
    2.7705    0.1183   -2.0540 O   0  0  0  0  0  0  0  0  0  0  0  0
    4.1167    0.0994   -2.5243 C   0  0  0  0  0  0  0  0  0  0  0  0
    4.1852   -0.4892   -3.9278 C   0  0  0  0  0  0  0  0  0  0  0  0
    0.1032   -3.1437   -2.2483 C   0  0  0  0  0  0  0  0  0  0  0  0
   -9.4333    1.7477    0.0342 H   0  0  0  0  0  0  0  0  0  0  0  0
  -11.1213    1.2762   -0.3612 H   0  0  0  0  0  0  0  0  0  0  0  0
  -10.7960    2.2509    1.1204 H   0  0  0  0  0  0  0  0  0  0  0  0
  -11.2656   -0.2066    1.5612 H   0  0  0  0  0  0  0  0  0  0  0  0
   -9.8036   -0.6411    0.6211 H   0  0  0  0  0  0  0  0  0  0  0  0
   -9.8451    1.1474    3.1602 H   0  0  0  0  0  0  0  0  0  0  0  0
   -9.4856   -0.6076    3.1485 H   0  0  0  0  0  0  0  0  0  0  0  0
   -7.4093    0.7044    3.2463 H   0  0  0  0  0  0  0  0  0  0  0  0
   -7.8327    1.5774    1.7272 H   0  0  0  0  0  0  0  0  0  0  0  0
   -6.2924   -2.3746    0.1024 H   0  0  0  0  0  0  0  0  0  0  0  0
   -3.9766   -2.5346   -0.6792 H   0  0  0  0  0  0  0  0  0  0  0  0
   -3.0998    1.2545    1.2106 H   0  0  0  0  0  0  0  0  0  0  0  0
   -5.4034    1.4001    1.9812 H   0  0  0  0  0  0  0  0  0  0  0  0
    1.7448   -0.3563    1.6053 H   0  0  0  0  0  0  0  0  0  0  0  0
    1.3437    1.1597    2.4854 H   0  0  0  0  0  0  0  0  0  0  0  0
    4.0282   -0.7917    0.8614 H   0  0  0  0  0  0  0  0  0  0  0  0
    5.2100    2.6898    0.5154 H   0  0  0  0  0  0  0  0  0  0  0  0
    7.5025    3.3198   -0.0848 H   0  0  0  0  0  0  0  0  0  0  0  0
    8.7196   -0.8026    0.2477 H   0  0  0  0  0  0  0  0  0  0  0  0
    6.4376   -1.4281    0.8704 H   0  0  0  0  0  0  0  0  0  0  0  0
   11.5803    1.4453   -0.7466 H   0  0  0  0  0  0  0  0  0  0  0  0
   10.4885    0.0966   -1.2382 H   0  0  0  0  0  0  0  0  0  0  0  0
   10.8994    0.3535    0.5172 H   0  0  0  0  0  0  0  0  0  0  0  0
    4.7628   -0.4827   -1.8325 H   0  0  0  0  0  0  0  0  0  0  0  0
    4.4963    1.1425   -2.5532 H   0  0  0  0  0  0  0  0  0  0  0  0
    5.2316   -0.4521   -4.2972 H   0  0  0  0  0  0  0  0  0  0  0  0
    3.8463   -1.5462   -3.9205 H   0  0  0  0  0  0  0  0  0  0  0  0
    3.5390    0.0959   -4.6156 H   0  0  0  0  0  0  0  0  0  0  0  0
    0.6593   -2.8494   -3.1634 H   0  0  0  0  0  0  0  0  0  0  0  0
   -0.8164   -3.6805   -2.5648 H   0  0  0  0  0  0  0  0  0  0  0  0
    0.7189   -3.8367   -1.6381 H   0  0  0  0  0  0  0  0  0  0  0  0
  1  2  1  0
  2  3  1  0
  3  4  1  0
  4  5  1  0
  5  6  1  0
  6  7  2  0
  7  8  1  0
  8  9  2  0
  9 10  1  0
 10 11  2  0
  9 12  1  0
 12 13  2  0
 13 14  1  0
 14 15  2  0
 15 16  1  0
 16 17  2  0
 16 18  1  0
 18 19  1  0
 19 20  1  0
 20 21  2  0
 20 22  1  0
 22 23  1  0
 23 24  2  0
 24 25  1  0
 25 26  2  0
 26 27  1  0
 27 28  2  0
 26 29  1  0
 29 30  1  0
 15 31  1  0
 31 32  2  0
 31 33  1  0
 33 34  1  0
 34 35  1  0
 14 36  1  0
 11  6  1  0
 17 12  1  0
 28 23  1  0
  1 37  1  0
  1 38  1  0
  1 39  1  0
  2 40  1  0
  2 41  1  0
  3 42  1  0
  3 43  1  0
  4 44  1  0
  4 45  1  0
  7 46  1  0
  8 47  1  0
 10 48  1  0
 11 49  1  0
 19 50  1  0
 19 51  1  0
 22 52  1  0
 24 53  1  0
 25 54  1  0
 27 55  1  0
 28 56  1  0
 30 57  1  0
 30 58  1  0
 30 59  1  0
 34 60  1  0
 34 61  1  0
 35 62  1  0
 35 63  1  0
 35 64  1  0
 36 65  1  0
 36 66  1  0
 36 67  1  0
M  END
$$$$
