
     RDKit          3D

 67 69  0  0  0  0  0  0  0  0999 V2000
   -8.7781    1.0313    2.4817 C   0  0  0  0  0  0  0  0  0  0  0  0
   -9.2824    1.0667    1.0391 C   0  0  0  0  0  0  0  0  0  0  0  0
   -8.1387    1.0915    0.0144 C   0  0  0  0  0  0  0  0  0  0  0  0
   -7.4103    2.4416   -0.0231 C   0  0  0  0  0  0  0  0  0  0  0  0
   -6.4195    2.4463   -1.0510 O   0  0  0  0  0  0  0  0  0  0  0  0
   -5.1750    1.7976   -0.9873 C   0  0  0  0  0  0  0  0  0  0  0  0
   -4.3643    1.8138   -2.1267 C   0  0  0  0  0  0  0  0  0  0  0  0
   -3.1157    1.1861   -2.1230 C   0  0  0  0  0  0  0  0  0  0  0  0
   -2.6501    0.5277   -0.9704 C   0  0  0  0  0  0  0  0  0  0  0  0
   -3.4643    0.5158    0.1768 C   0  0  0  0  0  0  0  0  0  0  0  0
   -4.7129    1.1446    0.1708 C   0  0  0  0  0  0  0  0  0  0  0  0
   -1.3247   -0.1389   -0.9641 C   0  0  0  0  0  0  0  0  0  0  0  0
   -0.8683   -0.7504    0.1580 N   0  0  0  0  0  0  0  0  0  0  0  0
    0.3382   -1.3735    0.1999 C   0  0  0  0  0  0  0  0  0  0  0  0
    1.1493   -1.4101   -0.9609 C   0  0  0  0  0  0  0  0  0  0  0  0
    0.6737   -0.7219   -2.1033 C   0  0  0  0  0  0  0  0  0  0  0  0
   -0.5465   -0.1287   -2.0752 N   0  0  0  0  0  0  0  0  0  0  0  0
    1.6216   -0.5989   -3.6303 S   0  0  0  0  0  0  0  0  0  0  0  0
    2.0149    1.1800   -3.4473 C   0  0  0  0  0  0  0  0  0  0  0  0
    2.7551    1.4639   -2.1748 C   0  0  0  0  0  0  0  0  0  0  0  0
    2.1654    2.0736   -1.2419 O   0  0  0  0  0  0  0  0  0  0  0  0
    4.1277    1.0678   -2.0352 N   0  0  0  0  0  0  0  0  0  0  0  0
    4.8221    0.9828   -0.7776 C   0  0  0  0  0  0  0  0  0  0  0  0
    6.2141    1.1499   -0.7501 C   0  0  0  0  0  0  0  0  0  0  0  0
    6.9212    1.0331    0.4503 C   0  0  0  0  0  0  0  0  0  0  0  0
    6.2438    0.7288    1.6459 C   0  0  0  0  0  0  0  0  0  0  0  0
    4.8578    0.5422    1.6153 C   0  0  0  0  0  0  0  0  0  0  0  0
    4.1501    0.6624    0.4164 C   0  0  0  0  0  0  0  0  0  0  0  0
    6.9073    0.5988    2.8750 O   0  0  0  0  0  0  0  0  0  0  0  0
    8.3111    0.7584    3.0513 C   0  0  0  0  0  0  0  0  0  0  0  0
    2.4198   -2.1846   -0.9876 C   0  0  0  0  0  0  0  0  0  0  0  0
    3.4073   -1.7701   -1.6519 O   0  0  0  0  0  0  0  0  0  0  0  0
    2.5191   -3.3849   -0.2738 O   0  0  0  0  0  0  0  0  0  0  0  0
    3.6913   -4.1968   -0.2575 C   0  0  0  0  0  0  0  0  0  0  0  0
    3.8240   -4.9764   -1.5605 C   0  0  0  0  0  0  0  0  0  0  0  0
    0.7593   -1.9922    1.5018 C   0  0  0  0  0  0  0  0  0  0  0  0
   -9.6396    0.9014    3.1701 H   0  0  0  0  0  0  0  0  0  0  0  0
   -8.0780    0.1814    2.6282 H   0  0  0  0  0  0  0  0  0  0  0  0
   -8.2669    1.9804    2.7439 H   0  0  0  0  0  0  0  0  0  0  0  0
   -9.9455    1.9475    0.8966 H   0  0  0  0  0  0  0  0  0  0  0  0
   -9.8926    0.1546    0.8619 H   0  0  0  0  0  0  0  0  0  0  0  0
   -8.5682    0.8998   -0.9930 H   0  0  0  0  0  0  0  0  0  0  0  0
   -7.4241    0.2693    0.2301 H   0  0  0  0  0  0  0  0  0  0  0  0
   -6.9496    2.6919    0.9547 H   0  0  0  0  0  0  0  0  0  0  0  0
   -8.1475    3.2393   -0.2551 H   0  0  0  0  0  0  0  0  0  0  0  0
   -4.7057    2.3154   -3.0234 H   0  0  0  0  0  0  0  0  0  0  0  0
   -2.5167    1.2187   -3.0244 H   0  0  0  0  0  0  0  0  0  0  0  0
   -3.1383    0.0209    1.0829 H   0  0  0  0  0  0  0  0  0  0  0  0
   -5.3050    1.1159    1.0743 H   0  0  0  0  0  0  0  0  0  0  0  0
    1.0724    1.7676   -3.4829 H   0  0  0  0  0  0  0  0  0  0  0  0
    2.6391    1.4944   -4.3095 H   0  0  0  0  0  0  0  0  0  0  0  0
    4.6624    0.8563   -2.9081 H   0  0  0  0  0  0  0  0  0  0  0  0
    6.7518    1.3773   -1.6621 H   0  0  0  0  0  0  0  0  0  0  0  0
    7.9929    1.1768    0.4365 H   0  0  0  0  0  0  0  0  0  0  0  0
    4.3266    0.2925    2.5252 H   0  0  0  0  0  0  0  0  0  0  0  0
    3.0858    0.4732    0.4241 H   0  0  0  0  0  0  0  0  0  0  0  0
    8.6182    1.7851    2.7601 H   0  0  0  0  0  0  0  0  0  0  0  0
    8.5623    0.6022    4.1203 H   0  0  0  0  0  0  0  0  0  0  0  0
    8.8599    0.0081    2.4437 H   0  0  0  0  0  0  0  0  0  0  0  0
    4.5941   -3.5705   -0.0871 H   0  0  0  0  0  0  0  0  0  0  0  0
    3.6091   -4.9180    0.5827 H   0  0  0  0  0  0  0  0  0  0  0  0
    4.7088   -5.6450   -1.5067 H   0  0  0  0  0  0  0  0  0  0  0  0
    3.9538   -4.2823   -2.4168 H   0  0  0  0  0  0  0  0  0  0  0  0
    2.9158   -5.5936   -1.7265 H   0  0  0  0  0  0  0  0  0  0  0  0
    0.1409   -1.5954    2.3350 H   0  0  0  0  0  0  0  0  0  0  0  0
    0.6200   -3.0924    1.4592 H   0  0  0  0  0  0  0  0  0  0  0  0
    1.8203   -1.7496    1.7231 H   0  0  0  0  0  0  0  0  0  0  0  0
  1  2  1  0
  2  3  1  0
  3  4  1  0
  4  5  1  0
  5  6  1  0
  6  7  2  0
  7  8  1  0
  8  9  2  0
  9 10  1  0
 10 11  2  0
  9 12  1  0
 12 13  2  0
 13 14  1  0
 14 15  2  0
 15 16  1  0
 16 17  2  0
 16 18  1  0
 18 19  1  0
 19 20  1  0
 20 21  2  0
 20 22  1  0
 22 23  1  0
 23 24  2  0
 24 25  1  0
 25 26  2  0
 26 27  1  0
 27 28  2  0
 26 29  1  0
 29 30  1  0
 15 31  1  0
 31 32  2  0
 31 33  1  0
 33 34  1  0
 34 35  1  0
 14 36  1  0
 11  6  1  0
 17 12  1  0
 28 23  1  0
  1 37  1  0
  1 38  1  0
  1 39  1  0
  2 40  1  0
  2 41  1  0
  3 42  1  0
  3 43  1  0
  4 44  1  0
  4 45  1  0
  7 46  1  0
  8 47  1  0
 10 48  1  0
 11 49  1  0
 19 50  1  0
 19 51  1  0
 22 52  1  0
 24 53  1  0
 25 54  1  0
 27 55  1  0
 28 56  1  0
 30 57  1  0
 30 58  1  0
 30 59  1  0
 34 60  1  0
 34 61  1  0
 35 62  1  0
 35 63  1  0
 35 64  1  0
 36 65  1  0
 36 66  1  0
 36 67  1  0
M  END
$$$$
