
     RDKit          3D

 67 69  0  0  0  0  0  0  0  0999 V2000
  -10.3774   -0.2200    4.7022 C   0  0  0  0  0  0  0  0  0  0  0  0
   -8.9618   -0.1321    4.1398 C   0  0  0  0  0  0  0  0  0  0  0  0
   -8.7963    1.1064    3.2496 C   0  0  0  0  0  0  0  0  0  0  0  0
   -7.3753    1.2187    2.6978 C   0  0  0  0  0  0  0  0  0  0  0  0
   -7.1010    0.1211    1.8295 O   0  0  0  0  0  0  0  0  0  0  0  0
   -5.8848   -0.0759    1.1596 C   0  0  0  0  0  0  0  0  0  0  0  0
   -4.8034    0.8157    1.2789 C   0  0  0  0  0  0  0  0  0  0  0  0
   -3.6106    0.5748    0.5906 C   0  0  0  0  0  0  0  0  0  0  0  0
   -3.4734   -0.5600   -0.2301 C   0  0  0  0  0  0  0  0  0  0  0  0
   -4.5594   -1.4471   -0.3446 C   0  0  0  0  0  0  0  0  0  0  0  0
   -5.7508   -1.2040    0.3445 C   0  0  0  0  0  0  0  0  0  0  0  0
   -2.2073   -0.8164   -0.9602 C   0  0  0  0  0  0  0  0  0  0  0  0
   -2.0772   -1.9167   -1.7446 N   0  0  0  0  0  0  0  0  0  0  0  0
   -0.9332   -2.1843   -2.4274 C   0  0  0  0  0  0  0  0  0  0  0  0
    0.1698   -1.3028   -2.3176 C   0  0  0  0  0  0  0  0  0  0  0  0
    0.0073   -0.1595   -1.5019 C   0  0  0  0  0  0  0  0  0  0  0  0
   -1.1657    0.0469   -0.8520 N   0  0  0  0  0  0  0  0  0  0  0  0
    1.3208    1.0421   -1.2472 S   0  0  0  0  0  0  0  0  0  0  0  0
    2.0577    0.1387    0.1517 C   0  0  0  0  0  0  0  0  0  0  0  0
    3.4152    0.6973    0.4285 C   0  0  0  0  0  0  0  0  0  0  0  0
    3.5480    1.5954    1.3031 O   0  0  0  0  0  0  0  0  0  0  0  0
    4.5324    0.2778   -0.3712 N   0  0  0  0  0  0  0  0  0  0  0  0
    5.8922    0.6846   -0.1434 C   0  0  0  0  0  0  0  0  0  0  0  0
    6.7526    0.8451   -1.2388 C   0  0  0  0  0  0  0  0  0  0  0  0
    8.0849    1.2196   -1.0448 C   0  0  0  0  0  0  0  0  0  0  0  0
    8.5856    1.4237    0.2456 C   0  0  0  0  0  0  0  0  0  0  0  0
    7.7314    1.2402    1.3495 C   0  0  0  0  0  0  0  0  0  0  0  0
    6.3979    0.8667    1.1555 C   0  0  0  0  0  0  0  0  0  0  0  0
    9.9293    1.8004    0.3879 O   0  0  0  0  0  0  0  0  0  0  0  0
   10.5689    2.0400    1.6373 C   0  0  0  0  0  0  0  0  0  0  0  0
    1.4536   -1.5720   -3.0156 C   0  0  0  0  0  0  0  0  0  0  0  0
    1.8942   -2.7512   -3.0974 O   0  0  0  0  0  0  0  0  0  0  0  0
    2.1834   -0.5162   -3.5701 O   0  0  0  0  0  0  0  0  0  0  0  0
    3.4377   -0.7004   -4.2176 C   0  0  0  0  0  0  0  0  0  0  0  0
    4.0277    0.6544   -4.5730 C   0  0  0  0  0  0  0  0  0  0  0  0
   -0.9003   -3.4163   -3.2851 C   0  0  0  0  0  0  0  0  0  0  0  0
  -10.6035    0.6749    5.3203 H   0  0  0  0  0  0  0  0  0  0  0  0
  -11.1168   -0.2922    3.8763 H   0  0  0  0  0  0  0  0  0  0  0  0
  -10.4684   -1.1243    5.3403 H   0  0  0  0  0  0  0  0  0  0  0  0
   -8.2414   -0.0852    4.9855 H   0  0  0  0  0  0  0  0  0  0  0  0
   -8.7535   -1.0516    3.5507 H   0  0  0  0  0  0  0  0  0  0  0  0
   -9.0195    2.0199    3.8433 H   0  0  0  0  0  0  0  0  0  0  0  0
   -9.5135    1.0595    2.4009 H   0  0  0  0  0  0  0  0  0  0  0  0
   -7.2871    2.1701    2.1296 H   0  0  0  0  0  0  0  0  0  0  0  0
   -6.6466    1.2308    3.5378 H   0  0  0  0  0  0  0  0  0  0  0  0
   -4.8735    1.6979    1.9004 H   0  0  0  0  0  0  0  0  0  0  0  0
   -2.7964    1.2795    0.7035 H   0  0  0  0  0  0  0  0  0  0  0  0
   -4.4917   -2.3308   -0.9665 H   0  0  0  0  0  0  0  0  0  0  0  0
   -6.5761   -1.8977    0.2446 H   0  0  0  0  0  0  0  0  0  0  0  0
    1.4067    0.2452    1.0458 H   0  0  0  0  0  0  0  0  0  0  0  0
    2.1537   -0.9413   -0.0909 H   0  0  0  0  0  0  0  0  0  0  0  0
    4.3268   -0.2756   -1.2333 H   0  0  0  0  0  0  0  0  0  0  0  0
    6.3866    0.6890   -2.2460 H   0  0  0  0  0  0  0  0  0  0  0  0
    8.7331    1.3499   -1.9022 H   0  0  0  0  0  0  0  0  0  0  0  0
    8.0900    1.3745    2.3608 H   0  0  0  0  0  0  0  0  0  0  0  0
    5.7739    0.6953    2.0222 H   0  0  0  0  0  0  0  0  0  0  0  0
   10.0633    2.8719    2.1717 H   0  0  0  0  0  0  0  0  0  0  0  0
   10.5508    1.1195    2.2581 H   0  0  0  0  0  0  0  0  0  0  0  0
   11.6253    2.3248    1.4550 H   0  0  0  0  0  0  0  0  0  0  0  0
    3.2966   -1.2995   -5.1430 H   0  0  0  0  0  0  0  0  0  0  0  0
    4.1385   -1.2355   -3.5407 H   0  0  0  0  0  0  0  0  0  0  0  0
    3.3480    1.1943   -5.2657 H   0  0  0  0  0  0  0  0  0  0  0  0
    5.0131    0.5172   -5.0661 H   0  0  0  0  0  0  0  0  0  0  0  0
    4.1659    1.2601   -3.6521 H   0  0  0  0  0  0  0  0  0  0  0  0
   -1.9247   -3.8266   -3.4134 H   0  0  0  0  0  0  0  0  0  0  0  0
   -0.2720   -4.1941   -2.8033 H   0  0  0  0  0  0  0  0  0  0  0  0
   -0.5005   -3.1760   -4.2928 H   0  0  0  0  0  0  0  0  0  0  0  0
  1  2  1  0
  2  3  1  0
  3  4  1  0
  4  5  1  0
  5  6  1  0
  6  7  2  0
  7  8  1  0
  8  9  2  0
  9 10  1  0
 10 11  2  0
  9 12  1  0
 12 13  2  0
 13 14  1  0
 14 15  2  0
 15 16  1  0
 16 17  2  0
 16 18  1  0
 18 19  1  0
 19 20  1  0
 20 21  2  0
 20 22  1  0
 22 23  1  0
 23 24  2  0
 24 25  1  0
 25 26  2  0
 26 27  1  0
 27 28  2  0
 26 29  1  0
 29 30  1  0
 15 31  1  0
 31 32  2  0
 31 33  1  0
 33 34  1  0
 34 35  1  0
 14 36  1  0
 11  6  1  0
 17 12  1  0
 28 23  1  0
  1 37  1  0
  1 38  1  0
  1 39  1  0
  2 40  1  0
  2 41  1  0
  3 42  1  0
  3 43  1  0
  4 44  1  0
  4 45  1  0
  7 46  1  0
  8 47  1  0
 10 48  1  0
 11 49  1  0
 19 50  1  0
 19 51  1  0
 22 52  1  0
 24 53  1  0
 25 54  1  0
 27 55  1  0
 28 56  1  0
 30 57  1  0
 30 58  1  0
 30 59  1  0
 34 60  1  0
 34 61  1  0
 35 62  1  0
 35 63  1  0
 35 64  1  0
 36 65  1  0
 36 66  1  0
 36 67  1  0
M  END
$$$$
