
     RDKit          3D

 67 69  0  0  0  0  0  0  0  0999 V2000
   -4.5673    7.2198    1.6116 C   0  0  0  0  0  0  0  0  0  0  0  0
   -4.3361    5.7253    1.4089 C   0  0  0  0  0  0  0  0  0  0  0  0
   -3.3977    5.1605    2.4829 C   0  0  0  0  0  0  0  0  0  0  0  0
   -3.1736    3.6594    2.3036 C   0  0  0  0  0  0  0  0  0  0  0  0
   -2.4980    3.4122    1.0728 O   0  0  0  0  0  0  0  0  0  0  0  0
   -2.0939    2.1448    0.6305 C   0  0  0  0  0  0  0  0  0  0  0  0
   -2.3859    0.9667    1.3421 C   0  0  0  0  0  0  0  0  0  0  0  0
   -1.9344   -0.2710    0.8739 C   0  0  0  0  0  0  0  0  0  0  0  0
   -1.1758   -0.3539   -0.3070 C   0  0  0  0  0  0  0  0  0  0  0  0
   -0.9037    0.8259   -1.0231 C   0  0  0  0  0  0  0  0  0  0  0  0
   -1.3645    2.0599   -0.5587 C   0  0  0  0  0  0  0  0  0  0  0  0
   -0.6243   -1.6515   -0.7619 C   0  0  0  0  0  0  0  0  0  0  0  0
   -1.0646   -2.8180   -0.2248 N   0  0  0  0  0  0  0  0  0  0  0  0
   -0.5549   -4.0201   -0.6043 C   0  0  0  0  0  0  0  0  0  0  0  0
    0.4800   -4.0682   -1.5696 C   0  0  0  0  0  0  0  0  0  0  0  0
    0.9317   -2.8410   -2.1000 C   0  0  0  0  0  0  0  0  0  0  0  0
    0.3633   -1.6804   -1.6905 N   0  0  0  0  0  0  0  0  0  0  0  0
    2.2919   -2.7238   -3.2756 S   0  0  0  0  0  0  0  0  0  0  0  0
    3.6379   -2.8677   -2.0396 C   0  0  0  0  0  0  0  0  0  0  0  0
    3.5436   -1.8554   -0.9334 C   0  0  0  0  0  0  0  0  0  0  0  0
    3.8811   -2.1965    0.2321 O   0  0  0  0  0  0  0  0  0  0  0  0
    3.1743   -0.4952   -1.2113 N   0  0  0  0  0  0  0  0  0  0  0  0
    2.6085    0.4102   -0.2431 C   0  0  0  0  0  0  0  0  0  0  0  0
    2.6193    1.7883   -0.5067 C   0  0  0  0  0  0  0  0  0  0  0  0
    2.0199    2.6890    0.3792 C   0  0  0  0  0  0  0  0  0  0  0  0
    1.3875    2.2218    1.5461 C   0  0  0  0  0  0  0  0  0  0  0  0
    1.3764    0.8493    1.8112 C   0  0  0  0  0  0  0  0  0  0  0  0
    1.9702   -0.0522    0.9238 C   0  0  0  0  0  0  0  0  0  0  0  0
    0.7484    3.0803    2.4527 O   0  0  0  0  0  0  0  0  0  0  0  0
    0.6263    4.4877    2.2770 C   0  0  0  0  0  0  0  0  0  0  0  0
    1.0828   -5.3505   -2.0023 C   0  0  0  0  0  0  0  0  0  0  0  0
    1.3468   -6.2437   -1.1516 O   0  0  0  0  0  0  0  0  0  0  0  0
    1.3624   -5.5639   -3.3572 O   0  0  0  0  0  0  0  0  0  0  0  0
    2.0663   -6.7042   -3.8439 C   0  0  0  0  0  0  0  0  0  0  0  0
    3.5559   -6.5805   -3.5448 C   0  0  0  0  0  0  0  0  0  0  0  0
   -1.1237   -5.2579    0.0266 C   0  0  0  0  0  0  0  0  0  0  0  0
   -3.6048    7.7709    1.5483 H   0  0  0  0  0  0  0  0  0  0  0  0
   -5.2477    7.6013    0.8214 H   0  0  0  0  0  0  0  0  0  0  0  0
   -5.0333    7.4074    2.6025 H   0  0  0  0  0  0  0  0  0  0  0  0
   -5.3155    5.2008    1.4529 H   0  0  0  0  0  0  0  0  0  0  0  0
   -3.8961    5.5656    0.4006 H   0  0  0  0  0  0  0  0  0  0  0  0
   -3.8392    5.3357    3.4884 H   0  0  0  0  0  0  0  0  0  0  0  0
   -2.4170    5.6828    2.4382 H   0  0  0  0  0  0  0  0  0  0  0  0
   -2.5508    3.2895    3.1470 H   0  0  0  0  0  0  0  0  0  0  0  0
   -4.1506    3.1287    2.3147 H   0  0  0  0  0  0  0  0  0  0  0  0
   -2.9512    0.9972    2.2634 H   0  0  0  0  0  0  0  0  0  0  0  0
   -2.1558   -1.1588    1.4526 H   0  0  0  0  0  0  0  0  0  0  0  0
   -0.3219    0.7990   -1.9358 H   0  0  0  0  0  0  0  0  0  0  0  0
   -1.1329    2.9597   -1.1145 H   0  0  0  0  0  0  0  0  0  0  0  0
    3.6199   -3.8934   -1.6135 H   0  0  0  0  0  0  0  0  0  0  0  0
    4.6078   -2.7341   -2.5616 H   0  0  0  0  0  0  0  0  0  0  0  0
    3.3106   -0.1483   -2.1878 H   0  0  0  0  0  0  0  0  0  0  0  0
    3.0879    2.1655   -1.4070 H   0  0  0  0  0  0  0  0  0  0  0  0
    2.0430    3.7435    0.1412 H   0  0  0  0  0  0  0  0  0  0  0  0
    0.8765    0.4758    2.6960 H   0  0  0  0  0  0  0  0  0  0  0  0
    1.8824   -1.1085    1.1344 H   0  0  0  0  0  0  0  0  0  0  0  0
    0.0581    4.9109    3.1304 H   0  0  0  0  0  0  0  0  0  0  0  0
    1.6318    4.9579    2.2501 H   0  0  0  0  0  0  0  0  0  0  0  0
    0.0753    4.7089    1.3385 H   0  0  0  0  0  0  0  0  0  0  0  0
    1.6570   -7.6348   -3.3940 H   0  0  0  0  0  0  0  0  0  0  0  0
    1.9271   -6.7624   -4.9439 H   0  0  0  0  0  0  0  0  0  0  0  0
    3.9552   -5.6450   -3.9909 H   0  0  0  0  0  0  0  0  0  0  0  0
    3.7305   -6.5633   -2.4488 H   0  0  0  0  0  0  0  0  0  0  0  0
    4.0975   -7.4469   -3.9791 H   0  0  0  0  0  0  0  0  0  0  0  0
   -1.3643   -6.0128   -0.7513 H   0  0  0  0  0  0  0  0  0  0  0  0
   -0.3954   -5.6798    0.7501 H   0  0  0  0  0  0  0  0  0  0  0  0
   -2.0606   -5.0187    0.5734 H   0  0  0  0  0  0  0  0  0  0  0  0
  1  2  1  0
  2  3  1  0
  3  4  1  0
  4  5  1  0
  5  6  1  0
  6  7  2  0
  7  8  1  0
  8  9  2  0
  9 10  1  0
 10 11  2  0
  9 12  1  0
 12 13  2  0
 13 14  1  0
 14 15  2  0
 15 16  1  0
 16 17  2  0
 16 18  1  0
 18 19  1  0
 19 20  1  0
 20 21  2  0
 20 22  1  0
 22 23  1  0
 23 24  2  0
 24 25  1  0
 25 26  2  0
 26 27  1  0
 27 28  2  0
 26 29  1  0
 29 30  1  0
 15 31  1  0
 31 32  2  0
 31 33  1  0
 33 34  1  0
 34 35  1  0
 14 36  1  0
 11  6  1  0
 17 12  1  0
 28 23  1  0
  1 37  1  0
  1 38  1  0
  1 39  1  0
  2 40  1  0
  2 41  1  0
  3 42  1  0
  3 43  1  0
  4 44  1  0
  4 45  1  0
  7 46  1  0
  8 47  1  0
 10 48  1  0
 11 49  1  0
 19 50  1  0
 19 51  1  0
 22 52  1  0
 24 53  1  0
 25 54  1  0
 27 55  1  0
 28 56  1  0
 30 57  1  0
 30 58  1  0
 30 59  1  0
 34 60  1  0
 34 61  1  0
 35 62  1  0
 35 63  1  0
 35 64  1  0
 36 65  1  0
 36 66  1  0
 36 67  1  0
M  END
$$$$
