
     RDKit          3D

 67 69  0  0  0  0  0  0  0  0999 V2000
  -10.7891    3.3249   -0.1680 C   0  0  0  0  0  0  0  0  0  0  0  0
   -9.3571    2.8480   -0.3915 C   0  0  0  0  0  0  0  0  0  0  0  0
   -9.3286    1.3956   -0.8848 C   0  0  0  0  0  0  0  0  0  0  0  0
   -7.9000    0.9126   -1.1345 C   0  0  0  0  0  0  0  0  0  0  0  0
   -7.1737    0.8828    0.0924 O   0  0  0  0  0  0  0  0  0  0  0  0
   -5.8334    0.4875    0.2116 C   0  0  0  0  0  0  0  0  0  0  0  0
   -5.0688    0.0669   -0.8916 C   0  0  0  0  0  0  0  0  0  0  0  0
   -3.7353   -0.3171   -0.7211 C   0  0  0  0  0  0  0  0  0  0  0  0
   -3.1389   -0.2891    0.5531 C   0  0  0  0  0  0  0  0  0  0  0  0
   -3.9099    0.1327    1.6518 C   0  0  0  0  0  0  0  0  0  0  0  0
   -5.2428    0.5160    1.4786 C   0  0  0  0  0  0  0  0  0  0  0  0
   -1.7234   -0.6956    0.7342 C   0  0  0  0  0  0  0  0  0  0  0  0
   -1.1495   -0.6573    1.9634 N   0  0  0  0  0  0  0  0  0  0  0  0
    0.1428   -1.0236    2.1674 C   0  0  0  0  0  0  0  0  0  0  0  0
    0.9323   -1.4491    1.0703 C   0  0  0  0  0  0  0  0  0  0  0  0
    0.3119   -1.4814   -0.2006 C   0  0  0  0  0  0  0  0  0  0  0  0
   -0.9871   -1.1100   -0.3274 N   0  0  0  0  0  0  0  0  0  0  0  0
    1.1782   -1.9738   -1.7009 S   0  0  0  0  0  0  0  0  0  0  0  0
    1.6605   -0.2791   -2.1761 C   0  0  0  0  0  0  0  0  0  0  0  0
    2.9049    0.1275   -1.4524 C   0  0  0  0  0  0  0  0  0  0  0  0
    2.8158    0.8871   -0.4504 O   0  0  0  0  0  0  0  0  0  0  0  0
    4.1738   -0.4120   -1.8571 N   0  0  0  0  0  0  0  0  0  0  0  0
    5.4459    0.0152   -1.3385 C   0  0  0  0  0  0  0  0  0  0  0  0
    5.6731    1.3446   -0.9398 C   0  0  0  0  0  0  0  0  0  0  0  0
    6.9252    1.7340   -0.4540 C   0  0  0  0  0  0  0  0  0  0  0  0
    7.9776    0.8027   -0.3745 C   0  0  0  0  0  0  0  0  0  0  0  0
    7.7570   -0.5122   -0.7976 C   0  0  0  0  0  0  0  0  0  0  0  0
    6.5066   -0.9009   -1.2853 C   0  0  0  0  0  0  0  0  0  0  0  0
    9.2495    1.1432    0.1094 O   0  0  0  0  0  0  0  0  0  0  0  0
    9.6128    2.4400    0.5718 C   0  0  0  0  0  0  0  0  0  0  0  0
    2.3524   -1.8492    1.2456 C   0  0  0  0  0  0  0  0  0  0  0  0
    3.0892   -1.2282    2.0599 O   0  0  0  0  0  0  0  0  0  0  0  0
    2.8800   -2.9059    0.4982 O   0  0  0  0  0  0  0  0  0  0  0  0
    4.2290   -3.3410    0.6272 C   0  0  0  0  0  0  0  0  0  0  0  0
    4.5379   -4.3640   -0.4531 C   0  0  0  0  0  0  0  0  0  0  0  0
    0.6707   -0.9714    3.5724 C   0  0  0  0  0  0  0  0  0  0  0  0
  -11.2905    2.6947    0.5973 H   0  0  0  0  0  0  0  0  0  0  0  0
  -11.3645    3.2774   -1.1171 H   0  0  0  0  0  0  0  0  0  0  0  0
  -10.7794    4.3764    0.1889 H   0  0  0  0  0  0  0  0  0  0  0  0
   -8.7986    2.9332    0.5659 H   0  0  0  0  0  0  0  0  0  0  0  0
   -8.8715    3.5088   -1.1424 H   0  0  0  0  0  0  0  0  0  0  0  0
   -9.9007    1.3174   -1.8352 H   0  0  0  0  0  0  0  0  0  0  0  0
   -9.8107    0.7324   -0.1333 H   0  0  0  0  0  0  0  0  0  0  0  0
   -7.9396   -0.1114   -1.5653 H   0  0  0  0  0  0  0  0  0  0  0  0
   -7.3963    1.5899   -1.8586 H   0  0  0  0  0  0  0  0  0  0  0  0
   -5.4945    0.0325   -1.8851 H   0  0  0  0  0  0  0  0  0  0  0  0
   -3.1731   -0.6354   -1.5900 H   0  0  0  0  0  0  0  0  0  0  0  0
   -3.4859    0.1676    2.6473 H   0  0  0  0  0  0  0  0  0  0  0  0
   -5.8211    0.8380    2.3355 H   0  0  0  0  0  0  0  0  0  0  0  0
    1.8587   -0.2649   -3.2681 H   0  0  0  0  0  0  0  0  0  0  0  0
    0.8357    0.4386   -1.9755 H   0  0  0  0  0  0  0  0  0  0  0  0
    4.1626   -1.2282   -2.5103 H   0  0  0  0  0  0  0  0  0  0  0  0
    4.8969    2.0922   -1.0277 H   0  0  0  0  0  0  0  0  0  0  0  0
    7.0668    2.7627   -0.1522 H   0  0  0  0  0  0  0  0  0  0  0  0
    8.5602   -1.2367   -0.7502 H   0  0  0  0  0  0  0  0  0  0  0  0
    6.3598   -1.9232   -1.6107 H   0  0  0  0  0  0  0  0  0  0  0  0
   10.6725    2.4245    0.8989 H   0  0  0  0  0  0  0  0  0  0  0  0
    9.5043    3.1817   -0.2475 H   0  0  0  0  0  0  0  0  0  0  0  0
    8.9779    2.7289    1.4360 H   0  0  0  0  0  0  0  0  0  0  0  0
    4.3793   -3.7987    1.6286 H   0  0  0  0  0  0  0  0  0  0  0  0
    4.9175   -2.4766    0.5171 H   0  0  0  0  0  0  0  0  0  0  0  0
    4.3909   -3.9101   -1.4562 H   0  0  0  0  0  0  0  0  0  0  0  0
    3.8661   -5.2420   -0.3476 H   0  0  0  0  0  0  0  0  0  0  0  0
    5.5919   -4.7006   -0.3603 H   0  0  0  0  0  0  0  0  0  0  0  0
    1.3734   -0.1191    3.6797 H   0  0  0  0  0  0  0  0  0  0  0  0
   -0.1616   -0.8281    4.2942 H   0  0  0  0  0  0  0  0  0  0  0  0
    1.1837   -1.9223    3.8286 H   0  0  0  0  0  0  0  0  0  0  0  0
  1  2  1  0
  2  3  1  0
  3  4  1  0
  4  5  1  0
  5  6  1  0
  6  7  2  0
  7  8  1  0
  8  9  2  0
  9 10  1  0
 10 11  2  0
  9 12  1  0
 12 13  2  0
 13 14  1  0
 14 15  2  0
 15 16  1  0
 16 17  2  0
 16 18  1  0
 18 19  1  0
 19 20  1  0
 20 21  2  0
 20 22  1  0
 22 23  1  0
 23 24  2  0
 24 25  1  0
 25 26  2  0
 26 27  1  0
 27 28  2  0
 26 29  1  0
 29 30  1  0
 15 31  1  0
 31 32  2  0
 31 33  1  0
 33 34  1  0
 34 35  1  0
 14 36  1  0
 11  6  1  0
 17 12  1  0
 28 23  1  0
  1 37  1  0
  1 38  1  0
  1 39  1  0
  2 40  1  0
  2 41  1  0
  3 42  1  0
  3 43  1  0
  4 44  1  0
  4 45  1  0
  7 46  1  0
  8 47  1  0
 10 48  1  0
 11 49  1  0
 19 50  1  0
 19 51  1  0
 22 52  1  0
 24 53  1  0
 25 54  1  0
 27 55  1  0
 28 56  1  0
 30 57  1  0
 30 58  1  0
 30 59  1  0
 34 60  1  0
 34 61  1  0
 35 62  1  0
 35 63  1  0
 35 64  1  0
 36 65  1  0
 36 66  1  0
 36 67  1  0
M  END
$$$$
