
     RDKit          3D

 67 69  0  0  0  0  0  0  0  0999 V2000
   10.4012    2.3174   -1.6927 C   0  0  0  0  0  0  0  0  0  0  0  0
    9.5265    1.3574   -0.8871 C   0  0  0  0  0  0  0  0  0  0  0  0
    8.1181    1.9127   -0.6280 C   0  0  0  0  0  0  0  0  0  0  0  0
    7.2670    1.9795   -1.9033 C   0  0  0  0  0  0  0  0  0  0  0  0
    5.9248    2.3542   -1.5919 O   0  0  0  0  0  0  0  0  0  0  0  0
    4.9511    1.5123   -1.0290 C   0  0  0  0  0  0  0  0  0  0  0  0
    3.7086    2.0662   -0.7051 C   0  0  0  0  0  0  0  0  0  0  0  0
    2.7002    1.2780   -0.1440 C   0  0  0  0  0  0  0  0  0  0  0  0
    2.9167   -0.0897    0.1038 C   0  0  0  0  0  0  0  0  0  0  0  0
    4.1657   -0.6470   -0.2256 C   0  0  0  0  0  0  0  0  0  0  0  0
    5.1728    0.1435   -0.7871 C   0  0  0  0  0  0  0  0  0  0  0  0
    1.8475   -0.9286    0.6995 C   0  0  0  0  0  0  0  0  0  0  0  0
    2.0575   -2.2519    0.9249 N   0  0  0  0  0  0  0  0  0  0  0  0
    1.1013   -3.0493    1.4696 C   0  0  0  0  0  0  0  0  0  0  0  0
   -0.1542   -2.4986    1.8090 C   0  0  0  0  0  0  0  0  0  0  0  0
   -0.3533   -1.1241    1.5630 C   0  0  0  0  0  0  0  0  0  0  0  0
    0.6455   -0.3835    1.0199 N   0  0  0  0  0  0  0  0  0  0  0  0
   -1.9249   -0.3122    1.8878 S   0  0  0  0  0  0  0  0  0  0  0  0
   -2.6200   -0.7461    0.2612 C   0  0  0  0  0  0  0  0  0  0  0  0
   -4.0338   -0.2693    0.1843 C   0  0  0  0  0  0  0  0  0  0  0  0
   -4.9656   -1.0453    0.5295 O   0  0  0  0  0  0  0  0  0  0  0  0
   -4.3121    1.0888   -0.1908 N   0  0  0  0  0  0  0  0  0  0  0  0
   -5.6297    1.5968   -0.4623 C   0  0  0  0  0  0  0  0  0  0  0  0
   -6.6119    0.8008   -1.0771 C   0  0  0  0  0  0  0  0  0  0  0  0
   -7.8777    1.3271   -1.3506 C   0  0  0  0  0  0  0  0  0  0  0  0
   -8.1815    2.6549   -1.0304 C   0  0  0  0  0  0  0  0  0  0  0  0
   -7.1925    3.4599   -0.4345 C   0  0  0  0  0  0  0  0  0  0  0  0
   -5.9262    2.9340   -0.1617 C   0  0  0  0  0  0  0  0  0  0  0  0
   -9.4669    3.1343   -1.3232 O   0  0  0  0  0  0  0  0  0  0  0  0
   -9.9109    4.4601   -1.0536 C   0  0  0  0  0  0  0  0  0  0  0  0
   -1.2354   -3.3352    2.3738 C   0  0  0  0  0  0  0  0  0  0  0  0
   -1.8810   -2.9344    3.3808 O   0  0  0  0  0  0  0  0  0  0  0  0
   -1.5440   -4.5635    1.7788 O   0  0  0  0  0  0  0  0  0  0  0  0
   -2.6656   -5.3576    2.1581 C   0  0  0  0  0  0  0  0  0  0  0  0
   -3.9580   -4.7435    1.6312 C   0  0  0  0  0  0  0  0  0  0  0  0
    1.4257   -4.4987    1.6881 C   0  0  0  0  0  0  0  0  0  0  0  0
   10.4364    3.3143   -1.2043 H   0  0  0  0  0  0  0  0  0  0  0  0
   11.4347    1.9152   -1.7492 H   0  0  0  0  0  0  0  0  0  0  0  0
   10.0158    2.4251   -2.7277 H   0  0  0  0  0  0  0  0  0  0  0  0
    9.4607    0.3810   -1.4144 H   0  0  0  0  0  0  0  0  0  0  0  0
   10.0186    1.1771    0.0933 H   0  0  0  0  0  0  0  0  0  0  0  0
    7.6198    1.2521    0.1124 H   0  0  0  0  0  0  0  0  0  0  0  0
    8.1864    2.9250   -0.1734 H   0  0  0  0  0  0  0  0  0  0  0  0
    7.6855    2.7559   -2.5766 H   0  0  0  0  0  0  0  0  0  0  0  0
    7.2836    1.0168   -2.4574 H   0  0  0  0  0  0  0  0  0  0  0  0
    3.5233    3.1171   -0.8885 H   0  0  0  0  0  0  0  0  0  0  0  0
    1.7518    1.7425    0.0945 H   0  0  0  0  0  0  0  0  0  0  0  0
    4.3683   -1.6961   -0.0506 H   0  0  0  0  0  0  0  0  0  0  0  0
    6.1170   -0.3238   -1.0275 H   0  0  0  0  0  0  0  0  0  0  0  0
   -2.0196   -0.2686   -0.5422 H   0  0  0  0  0  0  0  0  0  0  0  0
   -2.5911   -1.8480    0.1182 H   0  0  0  0  0  0  0  0  0  0  0  0
   -3.5165    1.7669   -0.1817 H   0  0  0  0  0  0  0  0  0  0  0  0
   -6.3968   -0.2180   -1.3702 H   0  0  0  0  0  0  0  0  0  0  0  0
   -8.6250    0.7018   -1.8226 H   0  0  0  0  0  0  0  0  0  0  0  0
   -7.3909    4.4922   -0.1803 H   0  0  0  0  0  0  0  0  0  0  0  0
   -5.1759    3.5674    0.2951 H   0  0  0  0  0  0  0  0  0  0  0  0
   -9.2895    5.1918   -1.6120 H   0  0  0  0  0  0  0  0  0  0  0  0
  -10.9646    4.5638   -1.3841 H   0  0  0  0  0  0  0  0  0  0  0  0
   -9.8579    4.6663    0.0363 H   0  0  0  0  0  0  0  0  0  0  0  0
   -2.7100   -5.4629    3.2639 H   0  0  0  0  0  0  0  0  0  0  0  0
   -2.5462   -6.3705    1.7194 H   0  0  0  0  0  0  0  0  0  0  0  0
   -4.8153   -5.4015    1.8856 H   0  0  0  0  0  0  0  0  0  0  0  0
   -3.9026   -4.6335    0.5275 H   0  0  0  0  0  0  0  0  0  0  0  0
   -4.1270   -3.7452    2.0866 H   0  0  0  0  0  0  0  0  0  0  0  0
    0.9071   -5.1182    0.9271 H   0  0  0  0  0  0  0  0  0  0  0  0
    2.5192   -4.6692    1.5933 H   0  0  0  0  0  0  0  0  0  0  0  0
    1.1157   -4.8163    2.7060 H   0  0  0  0  0  0  0  0  0  0  0  0
  1  2  1  0
  2  3  1  0
  3  4  1  0
  4  5  1  0
  5  6  1  0
  6  7  2  0
  7  8  1  0
  8  9  2  0
  9 10  1  0
 10 11  2  0
  9 12  1  0
 12 13  2  0
 13 14  1  0
 14 15  2  0
 15 16  1  0
 16 17  2  0
 16 18  1  0
 18 19  1  0
 19 20  1  0
 20 21  2  0
 20 22  1  0
 22 23  1  0
 23 24  2  0
 24 25  1  0
 25 26  2  0
 26 27  1  0
 27 28  2  0
 26 29  1  0
 29 30  1  0
 15 31  1  0
 31 32  2  0
 31 33  1  0
 33 34  1  0
 34 35  1  0
 14 36  1  0
 11  6  1  0
 17 12  1  0
 28 23  1  0
  1 37  1  0
  1 38  1  0
  1 39  1  0
  2 40  1  0
  2 41  1  0
  3 42  1  0
  3 43  1  0
  4 44  1  0
  4 45  1  0
  7 46  1  0
  8 47  1  0
 10 48  1  0
 11 49  1  0
 19 50  1  0
 19 51  1  0
 22 52  1  0
 24 53  1  0
 25 54  1  0
 27 55  1  0
 28 56  1  0
 30 57  1  0
 30 58  1  0
 30 59  1  0
 34 60  1  0
 34 61  1  0
 35 62  1  0
 35 63  1  0
 35 64  1  0
 36 65  1  0
 36 66  1  0
 36 67  1  0
M  END
$$$$
