
     RDKit          3D

 67 69  0  0  0  0  0  0  0  0999 V2000
   10.1512    4.3042    1.1550 C   0  0  0  0  0  0  0  0  0  0  0  0
    8.9449    3.4413    1.5136 C   0  0  0  0  0  0  0  0  0  0  0  0
    8.0651    3.1827    0.2854 C   0  0  0  0  0  0  0  0  0  0  0  0
    6.8580    2.3190    0.6446 C   0  0  0  0  0  0  0  0  0  0  0  0
    6.0680    2.1028   -0.5219 O   0  0  0  0  0  0  0  0  0  0  0  0
    4.8843    1.3507   -0.5498 C   0  0  0  0  0  0  0  0  0  0  0  0
    4.2084    1.2205   -1.7668 C   0  0  0  0  0  0  0  0  0  0  0  0
    3.0246    0.4820   -1.8485 C   0  0  0  0  0  0  0  0  0  0  0  0
    2.4923   -0.1441   -0.7064 C   0  0  0  0  0  0  0  0  0  0  0  0
    3.1740   -0.0116    0.5174 C   0  0  0  0  0  0  0  0  0  0  0  0
    4.3580    0.7277    0.5964 C   0  0  0  0  0  0  0  0  0  0  0  0
    1.2347   -0.9267   -0.7905 C   0  0  0  0  0  0  0  0  0  0  0  0
    0.7177   -1.5174    0.3174 N   0  0  0  0  0  0  0  0  0  0  0  0
   -0.4319   -2.2404    0.2781 C   0  0  0  0  0  0  0  0  0  0  0  0
   -1.1298   -2.3759   -0.9445 C   0  0  0  0  0  0  0  0  0  0  0  0
   -0.5730   -1.7549   -2.0852 C   0  0  0  0  0  0  0  0  0  0  0  0
    0.5866   -1.0587   -1.9759 N   0  0  0  0  0  0  0  0  0  0  0  0
   -1.3713   -1.8049   -3.6994 S   0  0  0  0  0  0  0  0  0  0  0  0
   -2.1162   -0.1420   -3.5698 C   0  0  0  0  0  0  0  0  0  0  0  0
   -3.1997   -0.1248   -2.5373 C   0  0  0  0  0  0  0  0  0  0  0  0
   -4.3114   -0.6531   -2.8082 O   0  0  0  0  0  0  0  0  0  0  0  0
   -2.9387    0.4150   -1.2309 N   0  0  0  0  0  0  0  0  0  0  0  0
   -3.8786    0.3783   -0.1449 C   0  0  0  0  0  0  0  0  0  0  0  0
   -5.2474    0.6222   -0.3480 C   0  0  0  0  0  0  0  0  0  0  0  0
   -6.1424    0.5626    0.7247 C   0  0  0  0  0  0  0  0  0  0  0  0
   -5.6778    0.2756    2.0222 C   0  0  0  0  0  0  0  0  0  0  0  0
   -4.3091    0.0686    2.2258 C   0  0  0  0  0  0  0  0  0  0  0  0
   -3.4149    0.1318    1.1543 C   0  0  0  0  0  0  0  0  0  0  0  0
   -6.5365    0.1935    3.1283 O   0  0  0  0  0  0  0  0  0  0  0  0
   -7.9475    0.3729    3.0649 C   0  0  0  0  0  0  0  0  0  0  0  0
   -2.3898   -3.1520   -1.0257 C   0  0  0  0  0  0  0  0  0  0  0  0
   -2.5802   -3.9461   -1.9870 O   0  0  0  0  0  0  0  0  0  0  0  0
   -3.3558   -3.0156   -0.0214 O   0  0  0  0  0  0  0  0  0  0  0  0
   -4.5693   -3.7635    0.0143 C   0  0  0  0  0  0  0  0  0  0  0  0
   -5.5731   -3.2196   -0.9947 C   0  0  0  0  0  0  0  0  0  0  0  0
   -0.8972   -2.8941    1.5480 C   0  0  0  0  0  0  0  0  0  0  0  0
    9.8183    5.2884    0.7617 H   0  0  0  0  0  0  0  0  0  0  0  0
   10.7689    4.4747    2.0618 H   0  0  0  0  0  0  0  0  0  0  0  0
   10.7759    3.7954    0.3902 H   0  0  0  0  0  0  0  0  0  0  0  0
    8.3515    3.9608    2.2974 H   0  0  0  0  0  0  0  0  0  0  0  0
    9.3050    2.4741    1.9274 H   0  0  0  0  0  0  0  0  0  0  0  0
    8.6611    2.6642   -0.4976 H   0  0  0  0  0  0  0  0  0  0  0  0
    7.7072    4.1515   -0.1274 H   0  0  0  0  0  0  0  0  0  0  0  0
    6.2468    2.8378    1.4154 H   0  0  0  0  0  0  0  0  0  0  0  0
    7.2068    1.3410    1.0429 H   0  0  0  0  0  0  0  0  0  0  0  0
    4.6032    1.6956   -2.6560 H   0  0  0  0  0  0  0  0  0  0  0  0
    2.5279    0.4037   -2.8073 H   0  0  0  0  0  0  0  0  0  0  0  0
    2.7943   -0.4788    1.4173 H   0  0  0  0  0  0  0  0  0  0  0  0
    4.8551    0.8082    1.5534 H   0  0  0  0  0  0  0  0  0  0  0  0
   -2.5501    0.1259   -4.5559 H   0  0  0  0  0  0  0  0  0  0  0  0
   -1.3330    0.6092   -3.3324 H   0  0  0  0  0  0  0  0  0  0  0  0
   -1.9563    0.6964   -1.0105 H   0  0  0  0  0  0  0  0  0  0  0  0
   -5.6254    0.8730   -1.3298 H   0  0  0  0  0  0  0  0  0  0  0  0
   -7.1912    0.7450    0.5349 H   0  0  0  0  0  0  0  0  0  0  0  0
   -3.9365   -0.1426    3.2201 H   0  0  0  0  0  0  0  0  0  0  0  0
   -2.3594   -0.0279    1.3328 H   0  0  0  0  0  0  0  0  0  0  0  0
   -8.3990   -0.3865    2.3921 H   0  0  0  0  0  0  0  0  0  0  0  0
   -8.3750    0.2469    4.0806 H   0  0  0  0  0  0  0  0  0  0  0  0
   -8.1865    1.3952    2.7028 H   0  0  0  0  0  0  0  0  0  0  0  0
   -4.3662   -4.8382   -0.1841 H   0  0  0  0  0  0  0  0  0  0  0  0
   -5.0059   -3.6772    1.0316 H   0  0  0  0  0  0  0  0  0  0  0  0
   -5.1754   -3.3090   -2.0267 H   0  0  0  0  0  0  0  0  0  0  0  0
   -6.5192   -3.7965   -0.9266 H   0  0  0  0  0  0  0  0  0  0  0  0
   -5.7891   -2.1540   -0.7767 H   0  0  0  0  0  0  0  0  0  0  0  0
   -0.0974   -2.8574    2.3179 H   0  0  0  0  0  0  0  0  0  0  0  0
   -1.1466   -3.9604    1.3645 H   0  0  0  0  0  0  0  0  0  0  0  0
   -1.7863   -2.3643    1.9466 H   0  0  0  0  0  0  0  0  0  0  0  0
  1  2  1  0
  2  3  1  0
  3  4  1  0
  4  5  1  0
  5  6  1  0
  6  7  2  0
  7  8  1  0
  8  9  2  0
  9 10  1  0
 10 11  2  0
  9 12  1  0
 12 13  2  0
 13 14  1  0
 14 15  2  0
 15 16  1  0
 16 17  2  0
 16 18  1  0
 18 19  1  0
 19 20  1  0
 20 21  2  0
 20 22  1  0
 22 23  1  0
 23 24  2  0
 24 25  1  0
 25 26  2  0
 26 27  1  0
 27 28  2  0
 26 29  1  0
 29 30  1  0
 15 31  1  0
 31 32  2  0
 31 33  1  0
 33 34  1  0
 34 35  1  0
 14 36  1  0
 11  6  1  0
 17 12  1  0
 28 23  1  0
  1 37  1  0
  1 38  1  0
  1 39  1  0
  2 40  1  0
  2 41  1  0
  3 42  1  0
  3 43  1  0
  4 44  1  0
  4 45  1  0
  7 46  1  0
  8 47  1  0
 10 48  1  0
 11 49  1  0
 19 50  1  0
 19 51  1  0
 22 52  1  0
 24 53  1  0
 25 54  1  0
 27 55  1  0
 28 56  1  0
 30 57  1  0
 30 58  1  0
 30 59  1  0
 34 60  1  0
 34 61  1  0
 35 62  1  0
 35 63  1  0
 35 64  1  0
 36 65  1  0
 36 66  1  0
 36 67  1  0
M  END
$$$$
