
     RDKit          3D

 67 69  0  0  0  0  0  0  0  0999 V2000
  -10.3293    3.6744   -1.2862 C   0  0  0  0  0  0  0  0  0  0  0  0
   -9.2325    2.7226   -1.7626 C   0  0  0  0  0  0  0  0  0  0  0  0
   -7.8592    3.0482   -1.1569 C   0  0  0  0  0  0  0  0  0  0  0  0
   -7.7896    2.7412    0.3452 C   0  0  0  0  0  0  0  0  0  0  0  0
   -6.4581    2.9131    0.8314 O   0  0  0  0  0  0  0  0  0  0  0  0
   -5.3944    2.0165    0.6351 C   0  0  0  0  0  0  0  0  0  0  0  0
   -5.5527    0.7723   -0.0037 C   0  0  0  0  0  0  0  0  0  0  0  0
   -4.4577   -0.0807   -0.1703 C   0  0  0  0  0  0  0  0  0  0  0  0
   -3.1837    0.2880    0.2989 C   0  0  0  0  0  0  0  0  0  0  0  0
   -3.0330    1.5312    0.9396 C   0  0  0  0  0  0  0  0  0  0  0  0
   -4.1290    2.3824    1.1047 C   0  0  0  0  0  0  0  0  0  0  0  0
   -2.0211   -0.6167    0.1212 C   0  0  0  0  0  0  0  0  0  0  0  0
   -2.1701   -1.8124   -0.5053 N   0  0  0  0  0  0  0  0  0  0  0  0
   -1.1276   -2.6648   -0.6871 C   0  0  0  0  0  0  0  0  0  0  0  0
    0.1547   -2.3119   -0.2071 C   0  0  0  0  0  0  0  0  0  0  0  0
    0.2885   -1.0610    0.4343 C   0  0  0  0  0  0  0  0  0  0  0  0
   -0.7959   -0.2590    0.5840 N   0  0  0  0  0  0  0  0  0  0  0  0
    1.8469   -0.5020    1.1354 S   0  0  0  0  0  0  0  0  0  0  0  0
    2.2852    0.4973   -0.3233 C   0  0  0  0  0  0  0  0  0  0  0  0
    3.6798    1.0109   -0.1663 C   0  0  0  0  0  0  0  0  0  0  0  0
    3.8637    2.2178    0.1480 O   0  0  0  0  0  0  0  0  0  0  0  0
    4.7942    0.1305   -0.3821 N   0  0  0  0  0  0  0  0  0  0  0  0
    6.1518    0.4447   -0.0282 C   0  0  0  0  0  0  0  0  0  0  0  0
    7.2004   -0.0652   -0.8067 C   0  0  0  0  0  0  0  0  0  0  0  0
    8.5297    0.2058   -0.4706 C   0  0  0  0  0  0  0  0  0  0  0  0
    8.8354    0.9757    0.6570 C   0  0  0  0  0  0  0  0  0  0  0  0
    7.7862    1.4700    1.4547 C   0  0  0  0  0  0  0  0  0  0  0  0
    6.4562    1.2000    1.1179 C   0  0  0  0  0  0  0  0  0  0  0  0
   10.1849    1.2210    0.9512 O   0  0  0  0  0  0  0  0  0  0  0  0
   10.6389    1.9851    2.0636 C   0  0  0  0  0  0  0  0  0  0  0  0
    1.3093   -3.2294   -0.3535 C   0  0  0  0  0  0  0  0  0  0  0  0
    2.4265   -2.7838   -0.7329 O   0  0  0  0  0  0  0  0  0  0  0  0
    1.1520   -4.5929   -0.0787 O   0  0  0  0  0  0  0  0  0  0  0  0
    2.2195   -5.5360   -0.1443 C   0  0  0  0  0  0  0  0  0  0  0  0
    3.1385   -5.3930    1.0635 C   0  0  0  0  0  0  0  0  0  0  0  0
   -1.3901   -3.9586   -1.4024 C   0  0  0  0  0  0  0  0  0  0  0  0
  -10.5294    3.5326   -0.2039 H   0  0  0  0  0  0  0  0  0  0  0  0
  -11.2674    3.4632   -1.8414 H   0  0  0  0  0  0  0  0  0  0  0  0
  -10.0373    4.7294   -1.4744 H   0  0  0  0  0  0  0  0  0  0  0  0
   -9.5172    1.6752   -1.5218 H   0  0  0  0  0  0  0  0  0  0  0  0
   -9.1567    2.8042   -2.8686 H   0  0  0  0  0  0  0  0  0  0  0  0
   -7.6119    4.1184   -1.3292 H   0  0  0  0  0  0  0  0  0  0  0  0
   -7.0965    2.4438   -1.6914 H   0  0  0  0  0  0  0  0  0  0  0  0
   -8.4416    3.4547    0.8902 H   0  0  0  0  0  0  0  0  0  0  0  0
   -8.1572    1.7175    0.5712 H   0  0  0  0  0  0  0  0  0  0  0  0
   -6.5145    0.4503   -0.3764 H   0  0  0  0  0  0  0  0  0  0  0  0
   -4.6121   -1.0302   -0.6671 H   0  0  0  0  0  0  0  0  0  0  0  0
   -2.0685    1.8498    1.3145 H   0  0  0  0  0  0  0  0  0  0  0  0
   -3.9935    3.3355    1.6003 H   0  0  0  0  0  0  0  0  0  0  0  0
    1.5729    1.3454   -0.4159 H   0  0  0  0  0  0  0  0  0  0  0  0
    2.2220   -0.1170   -1.2464 H   0  0  0  0  0  0  0  0  0  0  0  0
    4.6152   -0.7632   -0.8938 H   0  0  0  0  0  0  0  0  0  0  0  0
    6.9860   -0.6657   -1.6819 H   0  0  0  0  0  0  0  0  0  0  0  0
    9.3273   -0.1867   -1.0886 H   0  0  0  0  0  0  0  0  0  0  0  0
    7.9875    2.0554    2.3414 H   0  0  0  0  0  0  0  0  0  0  0  0
    5.6709    1.5596    1.7691 H   0  0  0  0  0  0  0  0  0  0  0  0
   11.7475    2.0199    2.0514 H   0  0  0  0  0  0  0  0  0  0  0  0
   10.3084    1.5118    3.0123 H   0  0  0  0  0  0  0  0  0  0  0  0
   10.2497    3.0232    1.9982 H   0  0  0  0  0  0  0  0  0  0  0  0
    1.7873   -6.5588   -0.1447 H   0  0  0  0  0  0  0  0  0  0  0  0
    2.7953   -5.4045   -1.0861 H   0  0  0  0  0  0  0  0  0  0  0  0
    3.9294   -6.1713    1.0249 H   0  0  0  0  0  0  0  0  0  0  0  0
    2.5550   -5.5186    2.0001 H   0  0  0  0  0  0  0  0  0  0  0  0
    3.6220   -4.3939    1.0672 H   0  0  0  0  0  0  0  0  0  0  0  0
   -2.3752   -3.9244   -1.9146 H   0  0  0  0  0  0  0  0  0  0  0  0
   -0.6109   -4.1421   -2.1720 H   0  0  0  0  0  0  0  0  0  0  0  0
   -1.4044   -4.7950   -0.6731 H   0  0  0  0  0  0  0  0  0  0  0  0
  1  2  1  0
  2  3  1  0
  3  4  1  0
  4  5  1  0
  5  6  1  0
  6  7  2  0
  7  8  1  0
  8  9  2  0
  9 10  1  0
 10 11  2  0
  9 12  1  0
 12 13  2  0
 13 14  1  0
 14 15  2  0
 15 16  1  0
 16 17  2  0
 16 18  1  0
 18 19  1  0
 19 20  1  0
 20 21  2  0
 20 22  1  0
 22 23  1  0
 23 24  2  0
 24 25  1  0
 25 26  2  0
 26 27  1  0
 27 28  2  0
 26 29  1  0
 29 30  1  0
 15 31  1  0
 31 32  2  0
 31 33  1  0
 33 34  1  0
 34 35  1  0
 14 36  1  0
 11  6  1  0
 17 12  1  0
 28 23  1  0
  1 37  1  0
  1 38  1  0
  1 39  1  0
  2 40  1  0
  2 41  1  0
  3 42  1  0
  3 43  1  0
  4 44  1  0
  4 45  1  0
  7 46  1  0
  8 47  1  0
 10 48  1  0
 11 49  1  0
 19 50  1  0
 19 51  1  0
 22 52  1  0
 24 53  1  0
 25 54  1  0
 27 55  1  0
 28 56  1  0
 30 57  1  0
 30 58  1  0
 30 59  1  0
 34 60  1  0
 34 61  1  0
 35 62  1  0
 35 63  1  0
 35 64  1  0
 36 65  1  0
 36 66  1  0
 36 67  1  0
M  END
$$$$
