
     RDKit          3D

 67 69  0  0  0  0  0  0  0  0999 V2000
    9.6749    3.0216   -1.2233 C   0  0  0  0  0  0  0  0  0  0  0  0
    8.2424    3.0903   -0.6949 C   0  0  0  0  0  0  0  0  0  0  0  0
    7.3191    2.0493   -1.3449 C   0  0  0  0  0  0  0  0  0  0  0  0
    7.6520    0.6147   -0.9132 C   0  0  0  0  0  0  0  0  0  0  0  0
    6.6782   -0.2999   -1.4173 O   0  0  0  0  0  0  0  0  0  0  0  0
    5.3843   -0.4823   -0.9013 C   0  0  0  0  0  0  0  0  0  0  0  0
    4.9258    0.1705    0.2584 C   0  0  0  0  0  0  0  0  0  0  0  0
    3.6273   -0.0502    0.7268 C   0  0  0  0  0  0  0  0  0  0  0  0
    2.7607   -0.9280    0.0504 C   0  0  0  0  0  0  0  0  0  0  0  0
    3.2261   -1.5802   -1.1057 C   0  0  0  0  0  0  0  0  0  0  0  0
    4.5246   -1.3578   -1.5722 C   0  0  0  0  0  0  0  0  0  0  0  0
    1.3817   -1.1602    0.5463 C   0  0  0  0  0  0  0  0  0  0  0  0
    0.5409   -1.9882   -0.1237 N   0  0  0  0  0  0  0  0  0  0  0  0
   -0.7271   -2.2287    0.3014 C   0  0  0  0  0  0  0  0  0  0  0  0
   -1.2044   -1.5939    1.4749 C   0  0  0  0  0  0  0  0  0  0  0  0
   -0.3163   -0.7157    2.1418 C   0  0  0  0  0  0  0  0  0  0  0  0
    0.9424   -0.5369    1.6681 N   0  0  0  0  0  0  0  0  0  0  0  0
   -0.8110    0.2509    3.5805 S   0  0  0  0  0  0  0  0  0  0  0  0
   -0.9053    1.8551    2.7051 C   0  0  0  0  0  0  0  0  0  0  0  0
   -1.8128    1.8056    1.5129 C   0  0  0  0  0  0  0  0  0  0  0  0
   -1.3745    2.1854    0.3934 O   0  0  0  0  0  0  0  0  0  0  0  0
   -3.1800    1.3922    1.6590 N   0  0  0  0  0  0  0  0  0  0  0  0
   -4.0536    1.1062    0.5530 C   0  0  0  0  0  0  0  0  0  0  0  0
   -5.4289    1.3436    0.6841 C   0  0  0  0  0  0  0  0  0  0  0  0
   -6.3022    1.0622   -0.3705 C   0  0  0  0  0  0  0  0  0  0  0  0
   -5.8109    0.5202   -1.5731 C   0  0  0  0  0  0  0  0  0  0  0  0
   -4.4418    0.2587   -1.6937 C   0  0  0  0  0  0  0  0  0  0  0  0
   -3.5689    0.5395   -0.6394 C   0  0  0  0  0  0  0  0  0  0  0  0
   -6.6458    0.2168   -2.6586 O   0  0  0  0  0  0  0  0  0  0  0  0
   -8.0569    0.4056   -2.6637 C   0  0  0  0  0  0  0  0  0  0  0  0
   -2.5644   -1.8735    2.0121 C   0  0  0  0  0  0  0  0  0  0  0  0
   -2.7589   -1.8975    3.2582 O   0  0  0  0  0  0  0  0  0  0  0  0
   -3.6271   -2.1366    1.1422 O   0  0  0  0  0  0  0  0  0  0  0  0
   -4.9471   -2.4112    1.5994 C   0  0  0  0  0  0  0  0  0  0  0  0
   -5.8174   -2.8262    0.4247 C   0  0  0  0  0  0  0  0  0  0  0  0
   -1.5612   -3.1847   -0.5018 C   0  0  0  0  0  0  0  0  0  0  0  0
   10.2629    3.8656   -0.8052 H   0  0  0  0  0  0  0  0  0  0  0  0
   10.1626    2.0742   -0.9137 H   0  0  0  0  0  0  0  0  0  0  0  0
    9.6847    3.0991   -2.3313 H   0  0  0  0  0  0  0  0  0  0  0  0
    8.2457    2.9611    0.4093 H   0  0  0  0  0  0  0  0  0  0  0  0
    7.8387    4.1027   -0.9134 H   0  0  0  0  0  0  0  0  0  0  0  0
    6.2745    2.2879   -1.0537 H   0  0  0  0  0  0  0  0  0  0  0  0
    7.3786    2.1273   -2.4524 H   0  0  0  0  0  0  0  0  0  0  0  0
    8.6354    0.3281   -1.3397 H   0  0  0  0  0  0  0  0  0  0  0  0
    7.7321    0.5279    0.1915 H   0  0  0  0  0  0  0  0  0  0  0  0
    5.5602    0.8510    0.8082 H   0  0  0  0  0  0  0  0  0  0  0  0
    3.3040    0.4693    1.6201 H   0  0  0  0  0  0  0  0  0  0  0  0
    2.5890   -2.2637   -1.6526 H   0  0  0  0  0  0  0  0  0  0  0  0
    4.8651   -1.8688   -2.4639 H   0  0  0  0  0  0  0  0  0  0  0  0
   -1.2842    2.6217    3.4123 H   0  0  0  0  0  0  0  0  0  0  0  0
    0.1194    2.1539    2.3954 H   0  0  0  0  0  0  0  0  0  0  0  0
   -3.5802    1.3655    2.6242 H   0  0  0  0  0  0  0  0  0  0  0  0
   -5.8233    1.7581    1.6034 H   0  0  0  0  0  0  0  0  0  0  0  0
   -7.3560    1.2663   -0.2392 H   0  0  0  0  0  0  0  0  0  0  0  0
   -4.0541   -0.1781   -2.6053 H   0  0  0  0  0  0  0  0  0  0  0  0
   -2.5234    0.2851   -0.7492 H   0  0  0  0  0  0  0  0  0  0  0  0
   -8.5263   -0.2048   -1.8634 H   0  0  0  0  0  0  0  0  0  0  0  0
   -8.2991    1.4795   -2.5178 H   0  0  0  0  0  0  0  0  0  0  0  0
   -8.4627    0.0798   -3.6433 H   0  0  0  0  0  0  0  0  0  0  0  0
   -5.3731   -1.5021    2.0762 H   0  0  0  0  0  0  0  0  0  0  0  0
   -4.9259   -3.2384    2.3419 H   0  0  0  0  0  0  0  0  0  0  0  0
   -5.4050   -3.7436   -0.0461 H   0  0  0  0  0  0  0  0  0  0  0  0
   -5.8507   -2.0161   -0.3308 H   0  0  0  0  0  0  0  0  0  0  0  0
   -6.8499   -3.0326    0.7770 H   0  0  0  0  0  0  0  0  0  0  0  0
   -2.0064   -3.9590    0.1578 H   0  0  0  0  0  0  0  0  0  0  0  0
   -0.9357   -3.7031   -1.2595 H   0  0  0  0  0  0  0  0  0  0  0  0
   -2.3609   -2.6305   -1.0364 H   0  0  0  0  0  0  0  0  0  0  0  0
  1  2  1  0
  2  3  1  0
  3  4  1  0
  4  5  1  0
  5  6  1  0
  6  7  2  0
  7  8  1  0
  8  9  2  0
  9 10  1  0
 10 11  2  0
  9 12  1  0
 12 13  2  0
 13 14  1  0
 14 15  2  0
 15 16  1  0
 16 17  2  0
 16 18  1  0
 18 19  1  0
 19 20  1  0
 20 21  2  0
 20 22  1  0
 22 23  1  0
 23 24  2  0
 24 25  1  0
 25 26  2  0
 26 27  1  0
 27 28  2  0
 26 29  1  0
 29 30  1  0
 15 31  1  0
 31 32  2  0
 31 33  1  0
 33 34  1  0
 34 35  1  0
 14 36  1  0
 11  6  1  0
 17 12  1  0
 28 23  1  0
  1 37  1  0
  1 38  1  0
  1 39  1  0
  2 40  1  0
  2 41  1  0
  3 42  1  0
  3 43  1  0
  4 44  1  0
  4 45  1  0
  7 46  1  0
  8 47  1  0
 10 48  1  0
 11 49  1  0
 19 50  1  0
 19 51  1  0
 22 52  1  0
 24 53  1  0
 25 54  1  0
 27 55  1  0
 28 56  1  0
 30 57  1  0
 30 58  1  0
 30 59  1  0
 34 60  1  0
 34 61  1  0
 35 62  1  0
 35 63  1  0
 35 64  1  0
 36 65  1  0
 36 66  1  0
 36 67  1  0
M  END
$$$$
