
     RDKit          3D

 67 69  0  0  0  0  0  0  0  0999 V2000
    8.8823    4.2227    0.2105 C   0  0  0  0  0  0  0  0  0  0  0  0
    7.8672    3.3913   -0.5728 C   0  0  0  0  0  0  0  0  0  0  0  0
    8.2836    1.9176   -0.7118 C   0  0  0  0  0  0  0  0  0  0  0  0
    8.2807    1.1521    0.6204 C   0  0  0  0  0  0  0  0  0  0  0  0
    7.0187    1.2554    1.2820 O   0  0  0  0  0  0  0  0  0  0  0  0
    5.8377    0.5989    0.8989 C   0  0  0  0  0  0  0  0  0  0  0  0
    4.6528    0.9361    1.5604 C   0  0  0  0  0  0  0  0  0  0  0  0
    3.4460    0.3182    1.2220 C   0  0  0  0  0  0  0  0  0  0  0  0
    3.4022   -0.6586    0.2107 C   0  0  0  0  0  0  0  0  0  0  0  0
    4.5960   -1.0016   -0.4500 C   0  0  0  0  0  0  0  0  0  0  0  0
    5.8021   -0.3819   -0.1095 C   0  0  0  0  0  0  0  0  0  0  0  0
    2.1217   -1.3149   -0.1517 C   0  0  0  0  0  0  0  0  0  0  0  0
    2.0834   -2.2516   -1.1342 N   0  0  0  0  0  0  0  0  0  0  0  0
    0.9286   -2.8713   -1.4934 C   0  0  0  0  0  0  0  0  0  0  0  0
   -0.2749   -2.5460   -0.8265 C   0  0  0  0  0  0  0  0  0  0  0  0
   -0.2135   -1.5640    0.1863 C   0  0  0  0  0  0  0  0  0  0  0  0
    0.9747   -0.9862    0.4959 N   0  0  0  0  0  0  0  0  0  0  0  0
   -1.6541   -1.0847    1.1496 S   0  0  0  0  0  0  0  0  0  0  0  0
   -2.0051    0.3789    0.1231 C   0  0  0  0  0  0  0  0  0  0  0  0
   -3.2988    0.9874    0.5573 C   0  0  0  0  0  0  0  0  0  0  0  0
   -3.2887    1.9200    1.4055 O   0  0  0  0  0  0  0  0  0  0  0  0
   -4.5396    0.4460    0.0772 N   0  0  0  0  0  0  0  0  0  0  0  0
   -5.8246    1.0516    0.2996 C   0  0  0  0  0  0  0  0  0  0  0  0
   -6.9559    0.2338    0.4312 C   0  0  0  0  0  0  0  0  0  0  0  0
   -8.2196    0.7979    0.6268 C   0  0  0  0  0  0  0  0  0  0  0  0
   -8.3782    2.1871    0.6781 C   0  0  0  0  0  0  0  0  0  0  0  0
   -7.2484    3.0123    0.5234 C   0  0  0  0  0  0  0  0  0  0  0  0
   -5.9838    2.4482    0.3289 C   0  0  0  0  0  0  0  0  0  0  0  0
   -9.6668    2.7043    0.8780 O   0  0  0  0  0  0  0  0  0  0  0  0
   -9.9730    4.0930    0.9504 C   0  0  0  0  0  0  0  0  0  0  0  0
   -1.5480   -3.2251   -1.1642 C   0  0  0  0  0  0  0  0  0  0  0  0
   -2.6074   -2.5533   -1.2952 O   0  0  0  0  0  0  0  0  0  0  0  0
   -1.5676   -4.6129   -1.3468 O   0  0  0  0  0  0  0  0  0  0  0  0
   -2.7549   -5.3524   -1.6235 C   0  0  0  0  0  0  0  0  0  0  0  0
   -3.6020   -5.5005   -0.3648 C   0  0  0  0  0  0  0  0  0  0  0  0
    0.9860   -3.8847   -2.5998 C   0  0  0  0  0  0  0  0  0  0  0  0
    8.9016    3.9157    1.2766 H   0  0  0  0  0  0  0  0  0  0  0  0
    8.5943    5.2942    0.1656 H   0  0  0  0  0  0  0  0  0  0  0  0
    9.8972    4.1110   -0.2269 H   0  0  0  0  0  0  0  0  0  0  0  0
    6.8700    3.4673   -0.0883 H   0  0  0  0  0  0  0  0  0  0  0  0
    7.7749    3.8249   -1.5921 H   0  0  0  0  0  0  0  0  0  0  0  0
    9.2979    1.8577   -1.1627 H   0  0  0  0  0  0  0  0  0  0  0  0
    7.5847    1.4232   -1.4185 H   0  0  0  0  0  0  0  0  0  0  0  0
    9.0630    1.5706    1.2865 H   0  0  0  0  0  0  0  0  0  0  0  0
    8.5482    0.0870    0.4564 H   0  0  0  0  0  0  0  0  0  0  0  0
    4.6667    1.6867    2.3406 H   0  0  0  0  0  0  0  0  0  0  0  0
    2.5485    0.6080    1.7537 H   0  0  0  0  0  0  0  0  0  0  0  0
    4.6018   -1.7515   -1.2309 H   0  0  0  0  0  0  0  0  0  0  0  0
    6.6975   -0.6802   -0.6352 H   0  0  0  0  0  0  0  0  0  0  0  0
   -1.1819    1.1169    0.2361 H   0  0  0  0  0  0  0  0  0  0  0  0
   -2.0751    0.0913   -0.9474 H   0  0  0  0  0  0  0  0  0  0  0  0
   -4.5126   -0.4907   -0.3860 H   0  0  0  0  0  0  0  0  0  0  0  0
   -6.8558   -0.8437    0.3926 H   0  0  0  0  0  0  0  0  0  0  0  0
   -9.0814    0.1518    0.7373 H   0  0  0  0  0  0  0  0  0  0  0  0
   -7.3376    4.0899    0.5429 H   0  0  0  0  0  0  0  0  0  0  0  0
   -5.1383    3.1054    0.1760 H   0  0  0  0  0  0  0  0  0  0  0  0
   -9.4290    4.5603    1.7983 H   0  0  0  0  0  0  0  0  0  0  0  0
  -11.0628    4.2158    1.1166 H   0  0  0  0  0  0  0  0  0  0  0  0
   -9.6999    4.5944   -0.0021 H   0  0  0  0  0  0  0  0  0  0  0  0
   -2.4660   -6.3635   -1.9801 H   0  0  0  0  0  0  0  0  0  0  0  0
   -3.3411   -4.8574   -2.4280 H   0  0  0  0  0  0  0  0  0  0  0  0
   -4.4921   -6.1264   -0.5854 H   0  0  0  0  0  0  0  0  0  0  0  0
   -3.0077   -5.9889    0.4362 H   0  0  0  0  0  0  0  0  0  0  0  0
   -3.9451   -4.5067   -0.0087 H   0  0  0  0  0  0  0  0  0  0  0  0
    1.9468   -3.8016   -3.1511 H   0  0  0  0  0  0  0  0  0  0  0  0
    0.1608   -3.7167   -3.3237 H   0  0  0  0  0  0  0  0  0  0  0  0
    0.9136   -4.9079   -2.1762 H   0  0  0  0  0  0  0  0  0  0  0  0
  1  2  1  0
  2  3  1  0
  3  4  1  0
  4  5  1  0
  5  6  1  0
  6  7  2  0
  7  8  1  0
  8  9  2  0
  9 10  1  0
 10 11  2  0
  9 12  1  0
 12 13  2  0
 13 14  1  0
 14 15  2  0
 15 16  1  0
 16 17  2  0
 16 18  1  0
 18 19  1  0
 19 20  1  0
 20 21  2  0
 20 22  1  0
 22 23  1  0
 23 24  2  0
 24 25  1  0
 25 26  2  0
 26 27  1  0
 27 28  2  0
 26 29  1  0
 29 30  1  0
 15 31  1  0
 31 32  2  0
 31 33  1  0
 33 34  1  0
 34 35  1  0
 14 36  1  0
 11  6  1  0
 17 12  1  0
 28 23  1  0
  1 37  1  0
  1 38  1  0
  1 39  1  0
  2 40  1  0
  2 41  1  0
  3 42  1  0
  3 43  1  0
  4 44  1  0
  4 45  1  0
  7 46  1  0
  8 47  1  0
 10 48  1  0
 11 49  1  0
 19 50  1  0
 19 51  1  0
 22 52  1  0
 24 53  1  0
 25 54  1  0
 27 55  1  0
 28 56  1  0
 30 57  1  0
 30 58  1  0
 30 59  1  0
 34 60  1  0
 34 61  1  0
 35 62  1  0
 35 63  1  0
 35 64  1  0
 36 65  1  0
 36 66  1  0
 36 67  1  0
M  END
$$$$
