
     RDKit          3D

 29 30  0  0  0  0  0  0  0  0999 V2000
    0.1218    2.3431   -2.0500 C   0  0  0  0  0  0  0  0  0  0  0  0
   -0.4756    1.6211   -1.0164 C   0  0  0  0  0  0  0  0  0  0  0  0
    0.2807    0.7184   -0.2460 C   0  0  0  0  0  0  0  0  0  0  0  0
    1.6622    0.5731   -0.4977 C   0  0  0  0  0  0  0  0  0  0  0  0
    2.2469    1.2991   -1.5558 C   0  0  0  0  0  0  0  0  0  0  0  0
    1.4790    2.1777   -2.3238 C   0  0  0  0  0  0  0  0  0  0  0  0
    2.0535    2.8700   -3.3382 F   0  0  0  0  0  0  0  0  0  0  0  0
    2.4577   -0.3785    0.3200 C   0  0  0  0  0  0  0  0  0  0  0  0
    3.7760   -0.2493    0.5258 C   0  0  0  0  0  0  0  0  0  0  0  0
    4.5403   -1.1998    1.3504 C   0  0  0  0  0  0  0  0  0  0  0  0
    3.9831   -2.1972    1.8820 O   0  0  0  0  0  0  0  0  0  0  0  0
    5.9000   -0.9950    1.5443 O   0  0  0  0  0  0  0  0  0  0  0  0
   -0.3080    0.0024    0.8094 O   0  0  0  0  0  0  0  0  0  0  0  0
   -1.6260   -0.4771    0.8321 C   0  0  0  0  0  0  0  0  0  0  0  0
   -2.2654   -0.6256    2.0688 C   0  0  0  0  0  0  0  0  0  0  0  0
   -3.5750   -1.1143    2.1347 C   0  0  0  0  0  0  0  0  0  0  0  0
   -4.2485   -1.4694    0.9615 C   0  0  0  0  0  0  0  0  0  0  0  0
   -3.6109   -1.3434   -0.2769 C   0  0  0  0  0  0  0  0  0  0  0  0
   -2.3013   -0.8551   -0.3432 C   0  0  0  0  0  0  0  0  0  0  0  0
   -4.4492   -1.8075   -1.7462 Cl  0  0  0  0  0  0  0  0  0  0  0  0
   -4.3709   -1.2837    3.6886 Cl  0  0  0  0  0  0  0  0  0  0  0  0
   -0.4696    3.0326   -2.6387 H   0  0  0  0  0  0  0  0  0  0  0  0
   -1.5248    1.7803   -0.8047 H   0  0  0  0  0  0  0  0  0  0  0  0
    3.2906    1.1736   -1.8102 H   0  0  0  0  0  0  0  0  0  0  0  0
    1.9299   -1.1920    0.8038 H   0  0  0  0  0  0  0  0  0  0  0  0
    4.3181    0.5874    0.1064 H   0  0  0  0  0  0  0  0  0  0  0  0
   -1.7448   -0.3532    2.9783 H   0  0  0  0  0  0  0  0  0  0  0  0
   -5.2615   -1.8484    1.0125 H   0  0  0  0  0  0  0  0  0  0  0  0
   -1.8081   -0.7893   -1.3043 H   0  0  0  0  0  0  0  0  0  0  0  0
  1  2  2  0
  2  3  1  0
  3  4  2  0
  4  5  1  0
  5  6  2  0
  6  7  1  0
  4  8  1  0
  8  9  2  0
  9 10  1  0
 10 11  2  0
 10 12  1  0
  3 13  1  0
 13 14  1  0
 14 15  2  0
 15 16  1  0
 16 17  2  0
 17 18  1  0
 18 19  2  0
 18 20  1  0
 16 21  1  0
  6  1  1  0
 19 14  1  0
  1 22  1  0
  2 23  1  0
  5 24  1  0
  8 25  1  0
  9 26  1  0
 15 27  1  0
 17 28  1  0
 19 29  1  0
M  CHG  1  12  -1
M  END
$$$$
