
     RDKit          3D

 29 30  0  0  0  0  0  0  0  0999 V2000
   -0.4634   -3.3498   -1.9433 C   0  0  0  0  0  0  0  0  0  0  0  0
    0.5559   -2.4058   -1.8108 C   0  0  0  0  0  0  0  0  0  0  0  0
    0.2836   -1.1323   -1.2972 C   0  0  0  0  0  0  0  0  0  0  0  0
   -1.0447   -0.7832   -0.9490 C   0  0  0  0  0  0  0  0  0  0  0  0
   -2.0634   -1.7461   -1.0937 C   0  0  0  0  0  0  0  0  0  0  0  0
   -1.7700   -3.0226   -1.5801 C   0  0  0  0  0  0  0  0  0  0  0  0
   -2.7604   -3.9380   -1.7204 F   0  0  0  0  0  0  0  0  0  0  0  0
   -1.3674    0.5993   -0.5213 C   0  0  0  0  0  0  0  0  0  0  0  0
   -2.3256    0.8775    0.3723 C   0  0  0  0  0  0  0  0  0  0  0  0
   -2.6067    2.2505    0.8214 C   0  0  0  0  0  0  0  0  0  0  0  0
   -1.9594    3.2310    0.3658 O   0  0  0  0  0  0  0  0  0  0  0  0
   -3.6013    2.4695    1.7653 O   0  0  0  0  0  0  0  0  0  0  0  0
    1.3506   -0.2323   -1.1611 O   0  0  0  0  0  0  0  0  0  0  0  0
    1.6820    0.4433    0.0238 C   0  0  0  0  0  0  0  0  0  0  0  0
    1.2316    0.0069    1.2847 C   0  0  0  0  0  0  0  0  0  0  0  0
    1.5747    0.7176    2.4397 C   0  0  0  0  0  0  0  0  0  0  0  0
    2.3803    1.8568    2.3466 C   0  0  0  0  0  0  0  0  0  0  0  0
    2.8471    2.2838    1.0993 C   0  0  0  0  0  0  0  0  0  0  0  0
    2.5016    1.5755   -0.0569 C   0  0  0  0  0  0  0  0  0  0  0  0
    3.8627    3.7093    0.9840 Cl  0  0  0  0  0  0  0  0  0  0  0  0
    0.9945    0.1789    4.0048 Cl  0  0  0  0  0  0  0  0  0  0  0  0
   -0.2391   -4.3355   -2.3304 H   0  0  0  0  0  0  0  0  0  0  0  0
    1.5678   -2.6699   -2.0910 H   0  0  0  0  0  0  0  0  0  0  0  0
   -3.0931   -1.5037   -0.8650 H   0  0  0  0  0  0  0  0  0  0  0  0
   -0.7586    1.4052   -0.9134 H   0  0  0  0  0  0  0  0  0  0  0  0
   -2.9045    0.0784    0.8173 H   0  0  0  0  0  0  0  0  0  0  0  0
    0.6193   -0.8810    1.3728 H   0  0  0  0  0  0  0  0  0  0  0  0
    2.6458    2.4064    3.2409 H   0  0  0  0  0  0  0  0  0  0  0  0
    2.8604    1.9103   -1.0221 H   0  0  0  0  0  0  0  0  0  0  0  0
  1  2  2  0
  2  3  1  0
  3  4  2  0
  4  5  1  0
  5  6  2  0
  6  7  1  0
  4  8  1  0
  8  9  2  0
  9 10  1  0
 10 11  2  0
 10 12  1  0
  3 13  1  0
 13 14  1  0
 14 15  2  0
 15 16  1  0
 16 17  2  0
 17 18  1  0
 18 19  2  0
 18 20  1  0
 16 21  1  0
  6  1  1  0
 19 14  1  0
  1 22  1  0
  2 23  1  0
  5 24  1  0
  8 25  1  0
  9 26  1  0
 15 27  1  0
 17 28  1  0
 19 29  1  0
M  CHG  1  12  -1
M  END
$$$$
