
     RDKit          3D

 29 30  0  0  0  0  0  0  0  0999 V2000
    0.2230   -2.2685   -2.4477 C   0  0  0  0  0  0  0  0  0  0  0  0
   -0.2792   -1.1444   -1.7899 C   0  0  0  0  0  0  0  0  0  0  0  0
    0.5303   -0.4186   -0.8961 C   0  0  0  0  0  0  0  0  0  0  0  0
    1.8619   -0.8379   -0.6687 C   0  0  0  0  0  0  0  0  0  0  0  0
    2.3598   -1.9546   -1.3600 C   0  0  0  0  0  0  0  0  0  0  0  0
    1.5417   -2.6711   -2.2364 C   0  0  0  0  0  0  0  0  0  0  0  0
    2.0312   -3.7553   -2.8869 F   0  0  0  0  0  0  0  0  0  0  0  0
    2.7735   -0.1220    0.2527 C   0  0  0  0  0  0  0  0  0  0  0  0
    2.3773    0.3551    1.4390 C   0  0  0  0  0  0  0  0  0  0  0  0
    3.3050    1.0361    2.3547 C   0  0  0  0  0  0  0  0  0  0  0  0
    2.8890    1.4445    3.4701 O   0  0  0  0  0  0  0  0  0  0  0  0
    4.6358    1.2394    2.0068 O   0  0  0  0  0  0  0  0  0  0  0  0
    0.0547    0.7563   -0.2928 O   0  0  0  0  0  0  0  0  0  0  0  0
   -1.2615    0.9715    0.1414 C   0  0  0  0  0  0  0  0  0  0  0  0
   -2.0853   -0.0844    0.5734 C   0  0  0  0  0  0  0  0  0  0  0  0
   -3.3874    0.1740    1.0155 C   0  0  0  0  0  0  0  0  0  0  0  0
   -3.8700    1.4865    1.0407 C   0  0  0  0  0  0  0  0  0  0  0  0
   -3.0489    2.5419    0.6310 C   0  0  0  0  0  0  0  0  0  0  0  0
   -1.7467    2.2839    0.1887 C   0  0  0  0  0  0  0  0  0  0  0  0
   -3.6504    4.1891    0.6743 Cl  0  0  0  0  0  0  0  0  0  0  0  0
   -4.4110   -1.1471    1.5481 Cl  0  0  0  0  0  0  0  0  0  0  0  0
   -0.4073   -2.8176   -3.1355 H   0  0  0  0  0  0  0  0  0  0  0  0
   -1.2897   -0.8210   -2.0029 H   0  0  0  0  0  0  0  0  0  0  0  0
    3.3818   -2.2807   -1.2074 H   0  0  0  0  0  0  0  0  0  0  0  0
    3.8200   -0.0623   -0.0230 H   0  0  0  0  0  0  0  0  0  0  0  0
    1.3542    0.2189    1.7668 H   0  0  0  0  0  0  0  0  0  0  0  0
   -1.7133   -1.1005    0.5858 H   0  0  0  0  0  0  0  0  0  0  0  0
   -4.8773    1.6862    1.3840 H   0  0  0  0  0  0  0  0  0  0  0  0
   -1.1113    3.1025   -0.1256 H   0  0  0  0  0  0  0  0  0  0  0  0
  1  2  2  0
  2  3  1  0
  3  4  2  0
  4  5  1  0
  5  6  2  0
  6  7  1  0
  4  8  1  0
  8  9  2  0
  9 10  1  0
 10 11  2  0
 10 12  1  0
  3 13  1  0
 13 14  1  0
 14 15  2  0
 15 16  1  0
 16 17  2  0
 17 18  1  0
 18 19  2  0
 18 20  1  0
 16 21  1  0
  6  1  1  0
 19 14  1  0
  1 22  1  0
  2 23  1  0
  5 24  1  0
  8 25  1  0
  9 26  1  0
 15 27  1  0
 17 28  1  0
 19 29  1  0
M  CHG  1  12  -1
M  END
$$$$
