
     RDKit          3D

 29 30  0  0  0  0  0  0  0  0999 V2000
    0.7346   -2.4571    1.8118 C   0  0  0  0  0  0  0  0  0  0  0  0
   -0.0919   -1.7562    0.9331 C   0  0  0  0  0  0  0  0  0  0  0  0
    0.4171   -0.6859    0.1743 C   0  0  0  0  0  0  0  0  0  0  0  0
    1.7836   -0.3460    0.2760 C   0  0  0  0  0  0  0  0  0  0  0  0
    2.6014   -1.0548    1.1801 C   0  0  0  0  0  0  0  0  0  0  0  0
    2.0772   -2.1030    1.9403 C   0  0  0  0  0  0  0  0  0  0  0  0
    2.8744   -2.7767    2.8058 F   0  0  0  0  0  0  0  0  0  0  0  0
    2.3176    0.7824   -0.5291 C   0  0  0  0  0  0  0  0  0  0  0  0
    3.6023    0.8796   -0.8996 C   0  0  0  0  0  0  0  0  0  0  0  0
    4.1051    2.0026   -1.7081 C   0  0  0  0  0  0  0  0  0  0  0  0
    3.3435    2.9398   -2.0679 O   0  0  0  0  0  0  0  0  0  0  0  0
    5.4428    2.0308   -2.0793 O   0  0  0  0  0  0  0  0  0  0  0  0
   -0.4028    0.0122   -0.7276 O   0  0  0  0  0  0  0  0  0  0  0  0
   -1.7682    0.2785   -0.5477 C   0  0  0  0  0  0  0  0  0  0  0  0
   -2.5788    0.4249   -1.6798 C   0  0  0  0  0  0  0  0  0  0  0  0
   -3.9429    0.7051   -1.5426 C   0  0  0  0  0  0  0  0  0  0  0  0
   -4.5016    0.8528   -0.2690 C   0  0  0  0  0  0  0  0  0  0  0  0
   -3.6958    0.7282    0.8673 C   0  0  0  0  0  0  0  0  0  0  0  0
   -2.3317    0.4483    0.7306 C   0  0  0  0  0  0  0  0  0  0  0  0
   -4.3932    0.9331    2.4637 Cl  0  0  0  0  0  0  0  0  0  0  0  0
   -4.9516    0.8734   -2.9678 Cl  0  0  0  0  0  0  0  0  0  0  0  0
    0.3324   -3.2767    2.3933 H   0  0  0  0  0  0  0  0  0  0  0  0
   -1.1252   -2.0607    0.8306 H   0  0  0  0  0  0  0  0  0  0  0  0
    3.6398   -0.7877    1.3220 H   0  0  0  0  0  0  0  0  0  0  0  0
    1.6180    1.5394   -0.8636 H   0  0  0  0  0  0  0  0  0  0  0  0
    4.3109    0.1072   -0.6328 H   0  0  0  0  0  0  0  0  0  0  0  0
   -2.1475    0.3130   -2.6668 H   0  0  0  0  0  0  0  0  0  0  0  0
   -5.5569    1.0706   -0.1629 H   0  0  0  0  0  0  0  0  0  0  0  0
   -1.7127    0.3828    1.6158 H   0  0  0  0  0  0  0  0  0  0  0  0
  1  2  2  0
  2  3  1  0
  3  4  2  0
  4  5  1  0
  5  6  2  0
  6  7  1  0
  4  8  1  0
  8  9  2  0
  9 10  1  0
 10 11  2  0
 10 12  1  0
  3 13  1  0
 13 14  1  0
 14 15  2  0
 15 16  1  0
 16 17  2  0
 17 18  1  0
 18 19  2  0
 18 20  1  0
 16 21  1  0
  6  1  1  0
 19 14  1  0
  1 22  1  0
  2 23  1  0
  5 24  1  0
  8 25  1  0
  9 26  1  0
 15 27  1  0
 17 28  1  0
 19 29  1  0
M  CHG  1  12  -1
M  END
$$$$
