
     RDKit          3D

 29 30  0  0  0  0  0  0  0  0999 V2000
   -1.6742   -3.5531   -0.0616 C   0  0  0  0  0  0  0  0  0  0  0  0
   -0.5399   -2.9904    0.5253 C   0  0  0  0  0  0  0  0  0  0  0  0
   -0.4043   -1.6004    0.6219 C   0  0  0  0  0  0  0  0  0  0  0  0
   -1.4454   -0.7580    0.1595 C   0  0  0  0  0  0  0  0  0  0  0  0
   -2.5865   -1.3421   -0.4258 C   0  0  0  0  0  0  0  0  0  0  0  0
   -2.6935   -2.7304   -0.5416 C   0  0  0  0  0  0  0  0  0  0  0  0
   -3.7994   -3.2801   -1.1012 F   0  0  0  0  0  0  0  0  0  0  0  0
   -1.3698    0.7081    0.3674 C   0  0  0  0  0  0  0  0  0  0  0  0
   -1.8857    1.5913   -0.4973 C   0  0  0  0  0  0  0  0  0  0  0  0
   -1.7656    3.0450   -0.3015 C   0  0  0  0  0  0  0  0  0  0  0  0
   -1.1792    3.5208    0.7072 O   0  0  0  0  0  0  0  0  0  0  0  0
   -2.3063    3.9077   -1.2458 O   0  0  0  0  0  0  0  0  0  0  0  0
    0.7682   -1.0890    1.1969 O   0  0  0  0  0  0  0  0  0  0  0  0
    1.6058   -0.1369    0.5950 C   0  0  0  0  0  0  0  0  0  0  0  0
    2.5095    0.5658    1.4010 C   0  0  0  0  0  0  0  0  0  0  0  0
    3.3550    1.5306    0.8423 C   0  0  0  0  0  0  0  0  0  0  0  0
    3.3068    1.7919   -0.5307 C   0  0  0  0  0  0  0  0  0  0  0  0
    2.4192    1.0837   -1.3470 C   0  0  0  0  0  0  0  0  0  0  0  0
    1.5760    0.1166   -0.7898 C   0  0  0  0  0  0  0  0  0  0  0  0
    2.3633    1.4073   -3.0700 Cl  0  0  0  0  0  0  0  0  0  0  0  0
    4.4729    2.4150    1.8646 Cl  0  0  0  0  0  0  0  0  0  0  0  0
   -1.7630   -4.6289   -0.1419 H   0  0  0  0  0  0  0  0  0  0  0  0
    0.2482   -3.6364    0.8911 H   0  0  0  0  0  0  0  0  0  0  0  0
   -3.4129   -0.7297   -0.7627 H   0  0  0  0  0  0  0  0  0  0  0  0
   -0.8236    1.0690    1.2307 H   0  0  0  0  0  0  0  0  0  0  0  0
   -2.3844    1.2481   -1.3946 H   0  0  0  0  0  0  0  0  0  0  0  0
    2.5454    0.3682    2.4650 H   0  0  0  0  0  0  0  0  0  0  0  0
    3.9594    2.5402   -0.9625 H   0  0  0  0  0  0  0  0  0  0  0  0
    0.9042   -0.4340   -1.4353 H   0  0  0  0  0  0  0  0  0  0  0  0
  1  2  2  0
  2  3  1  0
  3  4  2  0
  4  5  1  0
  5  6  2  0
  6  7  1  0
  4  8  1  0
  8  9  2  0
  9 10  1  0
 10 11  2  0
 10 12  1  0
  3 13  1  0
 13 14  1  0
 14 15  2  0
 15 16  1  0
 16 17  2  0
 17 18  1  0
 18 19  2  0
 18 20  1  0
 16 21  1  0
  6  1  1  0
 19 14  1  0
  1 22  1  0
  2 23  1  0
  5 24  1  0
  8 25  1  0
  9 26  1  0
 15 27  1  0
 17 28  1  0
 19 29  1  0
M  CHG  1  12  -1
M  END
$$$$
