
     RDKit          3D

 29 30  0  0  0  0  0  0  0  0999 V2000
   -1.1960    2.5982    1.2889 C   0  0  0  0  0  0  0  0  0  0  0  0
   -0.2217    1.8870    0.5880 C   0  0  0  0  0  0  0  0  0  0  0  0
   -0.5214    0.6342    0.0213 C   0  0  0  0  0  0  0  0  0  0  0  0
   -1.8290    0.1134    0.1311 C   0  0  0  0  0  0  0  0  0  0  0  0
   -2.7975    0.8382    0.8559 C   0  0  0  0  0  0  0  0  0  0  0  0
   -2.4797    2.0721    1.4285 C   0  0  0  0  0  0  0  0  0  0  0  0
   -3.4203    2.7590    2.1227 F   0  0  0  0  0  0  0  0  0  0  0  0
   -2.1421   -1.2079   -0.4712 C   0  0  0  0  0  0  0  0  0  0  0  0
   -3.3724   -1.5640   -0.8669 C   0  0  0  0  0  0  0  0  0  0  0  0
   -3.6552   -2.8759   -1.4723 C   0  0  0  0  0  0  0  0  0  0  0  0
   -2.7455   -3.7348   -1.6225 O   0  0  0  0  0  0  0  0  0  0  0  0
   -4.9478   -3.1731   -1.8835 O   0  0  0  0  0  0  0  0  0  0  0  0
    0.4476   -0.0795   -0.7032 O   0  0  0  0  0  0  0  0  0  0  0  0
    1.8221   -0.0984   -0.4242 C   0  0  0  0  0  0  0  0  0  0  0  0
    2.7182   -0.3179   -1.4773 C   0  0  0  0  0  0  0  0  0  0  0  0
    4.0963   -0.3580   -1.2378 C   0  0  0  0  0  0  0  0  0  0  0  0
    4.5851   -0.1906    0.0619 C   0  0  0  0  0  0  0  0  0  0  0  0
    3.6966    0.0093    1.1233 C   0  0  0  0  0  0  0  0  0  0  0  0
    2.3185    0.0492    0.8843 C   0  0  0  0  0  0  0  0  0  0  0  0
    4.3092    0.1995    2.7559 Cl  0  0  0  0  0  0  0  0  0  0  0  0
    5.2104   -0.6205   -2.5669 Cl  0  0  0  0  0  0  0  0  0  0  0  0
   -0.9542    3.5596    1.7237 H   0  0  0  0  0  0  0  0  0  0  0  0
    0.7621    2.3224    0.4710 H   0  0  0  0  0  0  0  0  0  0  0  0
   -3.7942    0.4454    1.0044 H   0  0  0  0  0  0  0  0  0  0  0  0
   -1.3210   -1.8965   -0.6323 H   0  0  0  0  0  0  0  0  0  0  0  0
   -4.2002   -0.8738   -0.7754 H   0  0  0  0  0  0  0  0  0  0  0  0
    2.3414   -0.4498   -2.4839 H   0  0  0  0  0  0  0  0  0  0  0  0
    5.6514   -0.2225    0.2474 H   0  0  0  0  0  0  0  0  0  0  0  0
    1.6394    0.1755    1.7174 H   0  0  0  0  0  0  0  0  0  0  0  0
  1  2  2  0
  2  3  1  0
  3  4  2  0
  4  5  1  0
  5  6  2  0
  6  7  1  0
  4  8  1  0
  8  9  2  0
  9 10  1  0
 10 11  2  0
 10 12  1  0
  3 13  1  0
 13 14  1  0
 14 15  2  0
 15 16  1  0
 16 17  2  0
 17 18  1  0
 18 19  2  0
 18 20  1  0
 16 21  1  0
  6  1  1  0
 19 14  1  0
  1 22  1  0
  2 23  1  0
  5 24  1  0
  8 25  1  0
  9 26  1  0
 15 27  1  0
 17 28  1  0
 19 29  1  0
M  CHG  1  12  -1
M  END
$$$$
