
     RDKit          3D

 29 30  0  0  0  0  0  0  0  0999 V2000
   -0.4488   -2.9490   -1.0130 C   0  0  0  0  0  0  0  0  0  0  0  0
    0.2680   -1.9456   -0.3604 C   0  0  0  0  0  0  0  0  0  0  0  0
   -0.3633   -0.7445    0.0128 C   0  0  0  0  0  0  0  0  0  0  0  0
   -1.7413   -0.5720   -0.2416 C   0  0  0  0  0  0  0  0  0  0  0  0
   -2.4471   -1.5899   -0.9156 C   0  0  0  0  0  0  0  0  0  0  0  0
   -1.8022   -2.7691   -1.2961 C   0  0  0  0  0  0  0  0  0  0  0  0
   -2.4925   -3.7402   -1.9434 F   0  0  0  0  0  0  0  0  0  0  0  0
   -2.4045    0.6962    0.1566 C   0  0  0  0  0  0  0  0  0  0  0  0
   -3.7129    0.7884    0.4293 C   0  0  0  0  0  0  0  0  0  0  0  0
   -4.3367    2.0584    0.8326 C   0  0  0  0  0  0  0  0  0  0  0  0
   -5.5663    2.0893    1.0995 O   0  0  0  0  0  0  0  0  0  0  0  0
   -3.5899    3.2279    0.9224 O   0  0  0  0  0  0  0  0  0  0  0  0
    0.3456    0.2628    0.6880 O   0  0  0  0  0  0  0  0  0  0  0  0
    1.6972    0.5804    0.4883 C   0  0  0  0  0  0  0  0  0  0  0  0
    2.4214    1.1331    1.5514 C   0  0  0  0  0  0  0  0  0  0  0  0
    3.7680    1.4766    1.3881 C   0  0  0  0  0  0  0  0  0  0  0  0
    4.3948    1.2799    0.1534 C   0  0  0  0  0  0  0  0  0  0  0  0
    3.6741    0.7470   -0.9202 C   0  0  0  0  0  0  0  0  0  0  0  0
    2.3275    0.4035   -0.7574 C   0  0  0  0  0  0  0  0  0  0  0  0
    4.4556    0.5189   -2.4740 Cl  0  0  0  0  0  0  0  0  0  0  0  0
    4.6691    2.1561    2.7309 Cl  0  0  0  0  0  0  0  0  0  0  0  0
    0.0471   -3.8679   -1.2985 H   0  0  0  0  0  0  0  0  0  0  0  0
    1.3117   -2.1133   -0.1291 H   0  0  0  0  0  0  0  0  0  0  0  0
   -3.4908   -1.4701   -1.1731 H   0  0  0  0  0  0  0  0  0  0  0  0
   -1.7833    1.5768    0.2691 H   0  0  0  0  0  0  0  0  0  0  0  0
   -4.3467   -0.0876    0.3855 H   0  0  0  0  0  0  0  0  0  0  0  0
    1.9371    1.2881    2.5075 H   0  0  0  0  0  0  0  0  0  0  0  0
    5.4366    1.5466    0.0267 H   0  0  0  0  0  0  0  0  0  0  0  0
    1.7725    0.0191   -1.6032 H   0  0  0  0  0  0  0  0  0  0  0  0
  1  2  2  0
  2  3  1  0
  3  4  2  0
  4  5  1  0
  5  6  2  0
  6  7  1  0
  4  8  1  0
  8  9  2  0
  9 10  1  0
 10 11  2  0
 10 12  1  0
  3 13  1  0
 13 14  1  0
 14 15  2  0
 15 16  1  0
 16 17  2  0
 17 18  1  0
 18 19  2  0
 18 20  1  0
 16 21  1  0
  6  1  1  0
 19 14  1  0
  1 22  1  0
  2 23  1  0
  5 24  1  0
  8 25  1  0
  9 26  1  0
 15 27  1  0
 17 28  1  0
 19 29  1  0
M  CHG  1  12  -1
M  END
$$$$
