
     RDKit          3D

 29 30  0  0  0  0  0  0  0  0999 V2000
   -0.9220    2.8464    0.8949 C   0  0  0  0  0  0  0  0  0  0  0  0
   -0.0502    1.9656    0.2540 C   0  0  0  0  0  0  0  0  0  0  0  0
   -0.4738    0.6701   -0.0960 C   0  0  0  0  0  0  0  0  0  0  0  0
   -1.8028    0.2747    0.1694 C   0  0  0  0  0  0  0  0  0  0  0  0
   -2.6662    1.1719    0.8313 C   0  0  0  0  0  0  0  0  0  0  0  0
   -2.2256    2.4483    1.1891 C   0  0  0  0  0  0  0  0  0  0  0  0
   -3.0660    3.3015    1.8249 F   0  0  0  0  0  0  0  0  0  0  0  0
   -2.2468   -1.0927   -0.2046 C   0  0  0  0  0  0  0  0  0  0  0  0
   -3.5233   -1.4064   -0.4675 C   0  0  0  0  0  0  0  0  0  0  0  0
   -3.9367   -2.7673   -0.8478 C   0  0  0  0  0  0  0  0  0  0  0  0
   -3.1005   -3.7072   -0.9189 O   0  0  0  0  0  0  0  0  0  0  0  0
   -5.2723   -3.0203   -1.1313 O   0  0  0  0  0  0  0  0  0  0  0  0
    0.3909   -0.2162   -0.7594 O   0  0  0  0  0  0  0  0  0  0  0  0
    1.7772   -0.3007   -0.5629 C   0  0  0  0  0  0  0  0  0  0  0  0
    2.5799   -0.7426   -1.6216 C   0  0  0  0  0  0  0  0  0  0  0  0
    3.9655   -0.8541   -1.4610 C   0  0  0  0  0  0  0  0  0  0  0  0
    4.5549   -0.5350   -0.2334 C   0  0  0  0  0  0  0  0  0  0  0  0
    3.7590   -0.1119    0.8360 C   0  0  0  0  0  0  0  0  0  0  0  0
    2.3735   -0.0005    0.6759 C   0  0  0  0  0  0  0  0  0  0  0  0
    4.4967    0.2692    2.3811 Cl  0  0  0  0  0  0  0  0  0  0  0  0
    4.9628   -1.3962   -2.7983 Cl  0  0  0  0  0  0  0  0  0  0  0  0
   -0.5853    3.8397    1.1627 H   0  0  0  0  0  0  0  0  0  0  0  0
    0.9502    2.3010    0.0138 H   0  0  0  0  0  0  0  0  0  0  0  0
   -3.6744    0.8842    1.0970 H   0  0  0  0  0  0  0  0  0  0  0  0
   -1.4879   -1.8594   -0.3072 H   0  0  0  0  0  0  0  0  0  0  0  0
   -4.2936   -0.6478   -0.4334 H   0  0  0  0  0  0  0  0  0  0  0  0
    2.1250   -0.9921   -2.5720 H   0  0  0  0  0  0  0  0  0  0  0  0
    5.6269   -0.6222   -0.1089 H   0  0  0  0  0  0  0  0  0  0  0  0
    1.7649    0.3001    1.5188 H   0  0  0  0  0  0  0  0  0  0  0  0
  1  2  2  0
  2  3  1  0
  3  4  2  0
  4  5  1  0
  5  6  2  0
  6  7  1  0
  4  8  1  0
  8  9  2  0
  9 10  1  0
 10 11  2  0
 10 12  1  0
  3 13  1  0
 13 14  1  0
 14 15  2  0
 15 16  1  0
 16 17  2  0
 17 18  1  0
 18 19  2  0
 18 20  1  0
 16 21  1  0
  6  1  1  0
 19 14  1  0
  1 22  1  0
  2 23  1  0
  5 24  1  0
  8 25  1  0
  9 26  1  0
 15 27  1  0
 17 28  1  0
 19 29  1  0
M  CHG  1  12  -1
M  END
$$$$
