
     RDKit          3D

 29 30  0  0  0  0  0  0  0  0999 V2000
    0.9430   -3.0192    1.0373 C   0  0  0  0  0  0  0  0  0  0  0  0
    0.0664   -2.0649    0.5184 C   0  0  0  0  0  0  0  0  0  0  0  0
    0.5576   -0.9616   -0.2044 C   0  0  0  0  0  0  0  0  0  0  0  0
    1.9516   -0.8266   -0.4023 C   0  0  0  0  0  0  0  0  0  0  0  0
    2.8173   -1.8105    0.1026 C   0  0  0  0  0  0  0  0  0  0  0  0
    2.3162   -2.8948    0.8266 C   0  0  0  0  0  0  0  0  0  0  0  0
    3.1645   -3.8302    1.3202 F   0  0  0  0  0  0  0  0  0  0  0  0
    2.5408    0.3036   -1.1560 C   0  0  0  0  0  0  0  0  0  0  0  0
    2.1084    1.5640   -1.0283 C   0  0  0  0  0  0  0  0  0  0  0  0
    2.7269    2.6785   -1.7618 C   0  0  0  0  0  0  0  0  0  0  0  0
    2.2999    3.8496   -1.5880 O   0  0  0  0  0  0  0  0  0  0  0  0
    3.7756    2.4593   -2.6481 O   0  0  0  0  0  0  0  0  0  0  0  0
   -0.3245   -0.0425   -0.7941 O   0  0  0  0  0  0  0  0  0  0  0  0
   -1.5388    0.3887   -0.2402 C   0  0  0  0  0  0  0  0  0  0  0  0
   -2.5537    0.8216   -1.1020 C   0  0  0  0  0  0  0  0  0  0  0  0
   -3.7739    1.2742   -0.5880 C   0  0  0  0  0  0  0  0  0  0  0  0
   -3.9808    1.3073    0.7948 C   0  0  0  0  0  0  0  0  0  0  0  0
   -2.9658    0.8953    1.6642 C   0  0  0  0  0  0  0  0  0  0  0  0
   -1.7454    0.4428    1.1508 C   0  0  0  0  0  0  0  0  0  0  0  0
   -3.2188    0.9557    3.3990 Cl  0  0  0  0  0  0  0  0  0  0  0  0
   -5.0428    1.8025   -1.6778 Cl  0  0  0  0  0  0  0  0  0  0  0  0
    0.5542   -3.8655    1.5890 H   0  0  0  0  0  0  0  0  0  0  0  0
   -0.9984   -2.2042    0.6524 H   0  0  0  0  0  0  0  0  0  0  0  0
    3.8867   -1.7291   -0.0520 H   0  0  0  0  0  0  0  0  0  0  0  0
    3.4103    0.0982   -1.7696 H   0  0  0  0  0  0  0  0  0  0  0  0
    1.2999    1.7961   -0.3463 H   0  0  0  0  0  0  0  0  0  0  0  0
   -2.3941    0.7992   -2.1728 H   0  0  0  0  0  0  0  0  0  0  0  0
   -4.9247    1.6585    1.1925 H   0  0  0  0  0  0  0  0  0  0  0  0
   -0.9574    0.1540    1.8340 H   0  0  0  0  0  0  0  0  0  0  0  0
  1  2  2  0
  2  3  1  0
  3  4  2  0
  4  5  1  0
  5  6  2  0
  6  7  1  0
  4  8  1  0
  8  9  2  0
  9 10  1  0
 10 11  2  0
 10 12  1  0
  3 13  1  0
 13 14  1  0
 14 15  2  0
 15 16  1  0
 16 17  2  0
 17 18  1  0
 18 19  2  0
 18 20  1  0
 16 21  1  0
  6  1  1  0
 19 14  1  0
  1 22  1  0
  2 23  1  0
  5 24  1  0
  8 25  1  0
  9 26  1  0
 15 27  1  0
 17 28  1  0
 19 29  1  0
M  CHG  1  12  -1
M  END
$$$$
