
     RDKit          3D

 29 30  0  0  0  0  0  0  0  0999 V2000
   -1.5347   -2.7064    1.1164 C   0  0  0  0  0  0  0  0  0  0  0  0
   -0.5116   -1.9916    0.4914 C   0  0  0  0  0  0  0  0  0  0  0  0
   -0.7909   -0.7923   -0.1901 C   0  0  0  0  0  0  0  0  0  0  0  0
   -2.1215   -0.3149   -0.2378 C   0  0  0  0  0  0  0  0  0  0  0  0
   -3.1431   -1.0609    0.3724 C   0  0  0  0  0  0  0  0  0  0  0  0
   -2.8494   -2.2443    1.0538 C   0  0  0  0  0  0  0  0  0  0  0  0
   -3.8435   -2.9475    1.6502 F   0  0  0  0  0  0  0  0  0  0  0  0
   -2.4920    0.9351   -0.9399 C   0  0  0  0  0  0  0  0  0  0  0  0
   -1.7508    2.0480   -0.8784 C   0  0  0  0  0  0  0  0  0  0  0  0
   -2.1512    3.2899   -1.5570 C   0  0  0  0  0  0  0  0  0  0  0  0
   -1.4322    4.3171   -1.4478 O   0  0  0  0  0  0  0  0  0  0  0  0
   -3.3114    3.3473   -2.3211 O   0  0  0  0  0  0  0  0  0  0  0  0
    0.2212   -0.1120   -0.8854 O   0  0  0  0  0  0  0  0  0  0  0  0
    1.5571   -0.0008   -0.4727 C   0  0  0  0  0  0  0  0  0  0  0  0
    2.5476    0.1790   -1.4456 C   0  0  0  0  0  0  0  0  0  0  0  0
    3.8901    0.3100   -1.0736 C   0  0  0  0  0  0  0  0  0  0  0  0
    4.2477    0.2737    0.2780 C   0  0  0  0  0  0  0  0  0  0  0  0
    3.2631    0.1141    1.2583 C   0  0  0  0  0  0  0  0  0  0  0  0
    1.9205   -0.0167    0.8868 C   0  0  0  0  0  0  0  0  0  0  0  0
    3.7101    0.0886    2.9543 Cl  0  0  0  0  0  0  0  0  0  0  0  0
    5.1240    0.5224   -2.3021 Cl  0  0  0  0  0  0  0  0  0  0  0  0
   -1.3092   -3.6293    1.6351 H   0  0  0  0  0  0  0  0  0  0  0  0
    0.4940   -2.3910    0.5114 H   0  0  0  0  0  0  0  0  0  0  0  0
   -4.1696   -0.7161    0.3333 H   0  0  0  0  0  0  0  0  0  0  0  0
   -3.4466    0.9583   -1.4526 H   0  0  0  0  0  0  0  0  0  0  0  0
   -0.8409    2.0649   -0.2915 H   0  0  0  0  0  0  0  0  0  0  0  0
    2.2721    0.2100   -2.4924 H   0  0  0  0  0  0  0  0  0  0  0  0
    5.2865    0.3761    0.5659 H   0  0  0  0  0  0  0  0  0  0  0  0
    1.1646   -0.1106    1.6555 H   0  0  0  0  0  0  0  0  0  0  0  0
  1  2  2  0
  2  3  1  0
  3  4  2  0
  4  5  1  0
  5  6  2  0
  6  7  1  0
  4  8  1  0
  8  9  2  0
  9 10  1  0
 10 11  2  0
 10 12  1  0
  3 13  1  0
 13 14  1  0
 14 15  2  0
 15 16  1  0
 16 17  2  0
 17 18  1  0
 18 19  2  0
 18 20  1  0
 16 21  1  0
  6  1  1  0
 19 14  1  0
  1 22  1  0
  2 23  1  0
  5 24  1  0
  8 25  1  0
  9 26  1  0
 15 27  1  0
 17 28  1  0
 19 29  1  0
M  CHG  1  12  -1
M  END
$$$$
