
     RDKit          3D

 30 32  0  0  0  0  0  0  0  0999 V2000
    3.0581   -0.0737   -2.0371 C   0  0  0  0  0  0  0  0  0  0  0  0
    2.9785   -1.3215   -1.4127 C   0  0  0  0  0  0  0  0  0  0  0  0
    2.1206   -1.5072   -0.3241 C   0  0  0  0  0  0  0  0  0  0  0  0
    1.3359   -0.4425    0.1476 C   0  0  0  0  0  0  0  0  0  0  0  0
    1.4220    0.8092   -0.4849 C   0  0  0  0  0  0  0  0  0  0  0  0
    2.2801    0.9906   -1.5737 C   0  0  0  0  0  0  0  0  0  0  0  0
    0.4208   -0.6388    1.2903 C   0  0  0  0  0  0  0  0  0  0  0  0
   -0.9082   -0.2492    1.4205 C   0  0  0  0  0  0  0  0  0  0  0  0
   -1.3303   -0.5308    2.6721 N   0  0  0  0  0  0  0  0  0  0  0  0
   -0.3309   -1.0696    3.3088 O   0  0  0  0  0  0  0  0  0  0  0  0
    0.7250   -1.1509    2.5372 C   0  0  0  0  0  0  0  0  0  0  0  0
    1.9886   -1.6519    2.9721 N   0  0  0  0  0  0  0  0  0  0  0  0
   -1.7862    0.3466    0.3897 C   0  0  0  0  0  0  0  0  0  0  0  0
   -1.6810   -0.0288   -0.9618 C   0  0  0  0  0  0  0  0  0  0  0  0
   -2.5254    0.5394   -1.9205 C   0  0  0  0  0  0  0  0  0  0  0  0
   -3.4897    1.4754   -1.5383 C   0  0  0  0  0  0  0  0  0  0  0  0
   -3.6167    1.8398   -0.1946 C   0  0  0  0  0  0  0  0  0  0  0  0
   -2.7727    1.2733    0.7670 C   0  0  0  0  0  0  0  0  0  0  0  0
   -4.9423    3.1114    0.3282 Br  0  0  0  0  0  0  0  0  0  0  0  0
   -2.4141    0.1751   -3.2217 F   0  0  0  0  0  0  0  0  0  0  0  0
    3.7217    0.0680   -2.8803 H   0  0  0  0  0  0  0  0  0  0  0  0
    3.5785   -2.1462   -1.7749 H   0  0  0  0  0  0  0  0  0  0  0  0
    2.0568   -2.4840    0.1393 H   0  0  0  0  0  0  0  0  0  0  0  0
    0.8294    1.6445   -0.1325 H   0  0  0  0  0  0  0  0  0  0  0  0
    2.3426    1.9567   -2.0575 H   0  0  0  0  0  0  0  0  0  0  0  0
    2.8282   -1.6159    2.3540 H   0  0  0  0  0  0  0  0  0  0  0  0
    2.0930   -2.0231    3.9420 H   0  0  0  0  0  0  0  0  0  0  0  0
   -0.9620   -0.7744   -1.2747 H   0  0  0  0  0  0  0  0  0  0  0  0
   -4.1420    1.9119   -2.2837 H   0  0  0  0  0  0  0  0  0  0  0  0
   -2.8783    1.5665    1.8044 H   0  0  0  0  0  0  0  0  0  0  0  0
  1  2  2  0
  2  3  1  0
  3  4  2  0
  4  5  1  0
  5  6  2  0
  4  7  1  0
  7  8  1  0
  8  9  2  0
  9 10  1  0
 10 11  1  0
 11 12  1  0
  8 13  1  0
 13 14  2  0
 14 15  1  0
 15 16  2  0
 16 17  1  0
 17 18  2  0
 17 19  1  0
 15 20  1  0
  6  1  1  0
 11  7  2  0
 18 13  1  0
  1 21  1  0
  2 22  1  0
  3 23  1  0
  5 24  1  0
  6 25  1  0
 12 26  1  0
 12 27  1  0
 14 28  1  0
 16 29  1  0
 18 30  1  0
M  END
$$$$
