
     RDKit          3D

 30 32  0  0  0  0  0  0  0  0999 V2000
    2.8175   -0.7607   -2.1872 C   0  0  0  0  0  0  0  0  0  0  0  0
    3.2075    0.3363   -1.4140 C   0  0  0  0  0  0  0  0  0  0  0  0
    2.4965    0.6661   -0.2560 C   0  0  0  0  0  0  0  0  0  0  0  0
    1.3885   -0.1024    0.1365 C   0  0  0  0  0  0  0  0  0  0  0  0
    1.0034   -1.2045   -0.6453 C   0  0  0  0  0  0  0  0  0  0  0  0
    1.7161   -1.5302   -1.8032 C   0  0  0  0  0  0  0  0  0  0  0  0
    0.6265    0.2528    1.3509 C   0  0  0  0  0  0  0  0  0  0  0  0
   -0.7509    0.3523    1.5185 C   0  0  0  0  0  0  0  0  0  0  0  0
   -1.0209    0.5968    2.8190 N   0  0  0  0  0  0  0  0  0  0  0  0
    0.1164    0.6514    3.4500 O   0  0  0  0  0  0  0  0  0  0  0  0
    1.1167    0.4509    2.6275 C   0  0  0  0  0  0  0  0  0  0  0  0
    2.4830    0.4034    3.0369 N   0  0  0  0  0  0  0  0  0  0  0  0
   -1.8023    0.2539    0.4823 C   0  0  0  0  0  0  0  0  0  0  0  0
   -3.0536   -0.2946    0.8100 C   0  0  0  0  0  0  0  0  0  0  0  0
   -4.0590   -0.3906   -0.1574 C   0  0  0  0  0  0  0  0  0  0  0  0
   -3.8276    0.0700   -1.4561 C   0  0  0  0  0  0  0  0  0  0  0  0
   -2.5934    0.6364   -1.7876 C   0  0  0  0  0  0  0  0  0  0  0  0
   -1.5870    0.7365   -0.8212 C   0  0  0  0  0  0  0  0  0  0  0  0
   -2.2825    1.2815   -3.5579 Br  0  0  0  0  0  0  0  0  0  0  0  0
   -5.2592   -0.9328    0.1647 F   0  0  0  0  0  0  0  0  0  0  0  0
    3.3680   -1.0136   -3.0840 H   0  0  0  0  0  0  0  0  0  0  0  0
    4.0583    0.9340   -1.7145 H   0  0  0  0  0  0  0  0  0  0  0  0
    2.7993    1.5292    0.3238 H   0  0  0  0  0  0  0  0  0  0  0  0
    0.1551   -1.8129   -0.3567 H   0  0  0  0  0  0  0  0  0  0  0  0
    1.4148   -2.3797   -2.4023 H   0  0  0  0  0  0  0  0  0  0  0  0
    3.2417    0.1526    2.3662 H   0  0  0  0  0  0  0  0  0  0  0  0
    2.7315    0.5796    4.0352 H   0  0  0  0  0  0  0  0  0  0  0  0
   -3.2469   -0.6612    1.8108 H   0  0  0  0  0  0  0  0  0  0  0  0
   -4.6081   -0.0073   -2.2022 H   0  0  0  0  0  0  0  0  0  0  0  0
   -0.6495    1.2067   -1.0869 H   0  0  0  0  0  0  0  0  0  0  0  0
  1  2  2  0
  2  3  1  0
  3  4  2  0
  4  5  1  0
  5  6  2  0
  4  7  1  0
  7  8  1  0
  8  9  2  0
  9 10  1  0
 10 11  1  0
 11 12  1  0
  8 13  1  0
 13 14  2  0
 14 15  1  0
 15 16  2  0
 16 17  1  0
 17 18  2  0
 17 19  1  0
 15 20  1  0
  6  1  1  0
 11  7  2  0
 18 13  1  0
  1 21  1  0
  2 22  1  0
  3 23  1  0
  5 24  1  0
  6 25  1  0
 12 26  1  0
 12 27  1  0
 14 28  1  0
 16 29  1  0
 18 30  1  0
M  END
$$$$
