
     RDKit          3D

 30 32  0  0  0  0  0  0  0  0999 V2000
   -3.1582   -1.6788    0.7130 C   0  0  0  0  0  0  0  0  0  0  0  0
   -3.1933   -0.4674    1.4090 C   0  0  0  0  0  0  0  0  0  0  0  0
   -2.2922    0.5524    1.0872 C   0  0  0  0  0  0  0  0  0  0  0  0
   -1.3488    0.3656    0.0639 C   0  0  0  0  0  0  0  0  0  0  0  0
   -1.3207   -0.8545   -0.6323 C   0  0  0  0  0  0  0  0  0  0  0  0
   -2.2223   -1.8722   -0.3066 C   0  0  0  0  0  0  0  0  0  0  0  0
   -0.3860    1.4355   -0.2678 C   0  0  0  0  0  0  0  0  0  0  0  0
    0.9879    1.3422   -0.4651 C   0  0  0  0  0  0  0  0  0  0  0  0
    1.4604    2.5454   -0.8564 N   0  0  0  0  0  0  0  0  0  0  0  0
    0.4494    3.3637   -0.9075 O   0  0  0  0  0  0  0  0  0  0  0  0
   -0.6616    2.7547   -0.5727 C   0  0  0  0  0  0  0  0  0  0  0  0
   -1.9438    3.3814   -0.5824 N   0  0  0  0  0  0  0  0  0  0  0  0
    1.8573    0.1624   -0.2630 C   0  0  0  0  0  0  0  0  0  0  0  0
    2.9815   -0.0230   -1.0851 C   0  0  0  0  0  0  0  0  0  0  0  0
    3.8153   -1.1311   -0.9038 C   0  0  0  0  0  0  0  0  0  0  0  0
    3.5405   -2.0567    0.1062 C   0  0  0  0  0  0  0  0  0  0  0  0
    2.4364   -1.8709    0.9432 C   0  0  0  0  0  0  0  0  0  0  0  0
    1.6024   -0.7619    0.7661 C   0  0  0  0  0  0  0  0  0  0  0  0
    2.0700   -3.1266    2.3347 Br  0  0  0  0  0  0  0  0  0  0  0  0
    4.8909   -1.3084   -1.7100 F   0  0  0  0  0  0  0  0  0  0  0  0
   -3.8553   -2.4677    0.9643 H   0  0  0  0  0  0  0  0  0  0  0  0
   -3.9159   -0.3201    2.2012 H   0  0  0  0  0  0  0  0  0  0  0  0
   -2.3194    1.4793    1.6467 H   0  0  0  0  0  0  0  0  0  0  0  0
   -0.6043   -1.0162   -1.4283 H   0  0  0  0  0  0  0  0  0  0  0  0
   -2.1959   -2.8105   -0.8453 H   0  0  0  0  0  0  0  0  0  0  0  0
   -2.8144    2.8378   -0.3957 H   0  0  0  0  0  0  0  0  0  0  0  0
   -2.0241    4.3938   -0.8229 H   0  0  0  0  0  0  0  0  0  0  0  0
    3.2051    0.6825   -1.8761 H   0  0  0  0  0  0  0  0  0  0  0  0
    4.1877   -2.9136    0.2424 H   0  0  0  0  0  0  0  0  0  0  0  0
    0.7713   -0.6171    1.4435 H   0  0  0  0  0  0  0  0  0  0  0  0
  1  2  2  0
  2  3  1  0
  3  4  2  0
  4  5  1  0
  5  6  2  0
  4  7  1  0
  7  8  1  0
  8  9  2  0
  9 10  1  0
 10 11  1  0
 11 12  1  0
  8 13  1  0
 13 14  2  0
 14 15  1  0
 15 16  2  0
 16 17  1  0
 17 18  2  0
 17 19  1  0
 15 20  1  0
  6  1  1  0
 11  7  2  0
 18 13  1  0
  1 21  1  0
  2 22  1  0
  3 23  1  0
  5 24  1  0
  6 25  1  0
 12 26  1  0
 12 27  1  0
 14 28  1  0
 16 29  1  0
 18 30  1  0
M  END
$$$$
