
     RDKit          3D

 30 32  0  0  0  0  0  0  0  0999 V2000
   -2.9443   -1.8373    1.1208 C   0  0  0  0  0  0  0  0  0  0  0  0
   -3.1159   -0.5203    1.5559 C   0  0  0  0  0  0  0  0  0  0  0  0
   -2.3379    0.5054    1.0100 C   0  0  0  0  0  0  0  0  0  0  0  0
   -1.3816    0.2185    0.0225 C   0  0  0  0  0  0  0  0  0  0  0  0
   -1.2159   -1.1077   -0.4108 C   0  0  0  0  0  0  0  0  0  0  0  0
   -1.9947   -2.1307    0.1385 C   0  0  0  0  0  0  0  0  0  0  0  0
   -0.5479    1.2978   -0.5449 C   0  0  0  0  0  0  0  0  0  0  0  0
    0.8272    1.3195   -0.7541 C   0  0  0  0  0  0  0  0  0  0  0  0
    1.1584    2.4615   -1.3945 N   0  0  0  0  0  0  0  0  0  0  0  0
    0.0604    3.1342   -1.5854 O   0  0  0  0  0  0  0  0  0  0  0  0
   -0.9730    2.4872   -1.1052 C   0  0  0  0  0  0  0  0  0  0  0  0
   -2.3184    2.9518   -1.2097 N   0  0  0  0  0  0  0  0  0  0  0  0
    1.8261    0.3106   -0.3380 C   0  0  0  0  0  0  0  0  0  0  0  0
    2.9623    0.0865   -1.1335 C   0  0  0  0  0  0  0  0  0  0  0  0
    3.9174   -0.8609   -0.7515 C   0  0  0  0  0  0  0  0  0  0  0  0
    3.7523   -1.5840    0.4326 C   0  0  0  0  0  0  0  0  0  0  0  0
    2.6361   -1.3542    1.2422 C   0  0  0  0  0  0  0  0  0  0  0  0
    1.6806   -0.4051    0.8642 C   0  0  0  0  0  0  0  0  0  0  0  0
    2.4185   -2.3300    2.8693 Br  0  0  0  0  0  0  0  0  0  0  0  0
    5.0044   -1.0793   -1.5319 F   0  0  0  0  0  0  0  0  0  0  0  0
   -3.5462   -2.6303    1.5455 H   0  0  0  0  0  0  0  0  0  0  0  0
   -3.8489   -0.2948    2.3196 H   0  0  0  0  0  0  0  0  0  0  0  0
   -2.4695    1.5186    1.3693 H   0  0  0  0  0  0  0  0  0  0  0  0
   -0.4875   -1.3488   -1.1752 H   0  0  0  0  0  0  0  0  0  0  0  0
   -1.8625   -3.1508   -0.1981 H   0  0  0  0  0  0  0  0  0  0  0  0
   -3.1208    2.3648   -0.8938 H   0  0  0  0  0  0  0  0  0  0  0  0
   -2.5143    3.8779   -1.6493 H   0  0  0  0  0  0  0  0  0  0  0  0
    3.1022    0.6348   -2.0572 H   0  0  0  0  0  0  0  0  0  0  0  0
    4.4934   -2.3172    0.7241 H   0  0  0  0  0  0  0  0  0  0  0  0
    0.8399   -0.2176    1.5188 H   0  0  0  0  0  0  0  0  0  0  0  0
  1  2  2  0
  2  3  1  0
  3  4  2  0
  4  5  1  0
  5  6  2  0
  4  7  1  0
  7  8  1  0
  8  9  2  0
  9 10  1  0
 10 11  1  0
 11 12  1  0
  8 13  1  0
 13 14  2  0
 14 15  1  0
 15 16  2  0
 16 17  1  0
 17 18  2  0
 17 19  1  0
 15 20  1  0
  6  1  1  0
 11  7  2  0
 18 13  1  0
  1 21  1  0
  2 22  1  0
  3 23  1  0
  5 24  1  0
  6 25  1  0
 12 26  1  0
 12 27  1  0
 14 28  1  0
 16 29  1  0
 18 30  1  0
M  END
$$$$
