
     RDKit          3D

 30 32  0  0  0  0  0  0  0  0999 V2000
   -3.0810    1.8302   -0.6769 C   0  0  0  0  0  0  0  0  0  0  0  0
   -3.3010    0.5200   -1.1106 C   0  0  0  0  0  0  0  0  0  0  0  0
   -2.4495   -0.5084   -0.6950 C   0  0  0  0  0  0  0  0  0  0  0  0
   -1.3705   -0.2310    0.1599 C   0  0  0  0  0  0  0  0  0  0  0  0
   -1.1567    1.0885    0.5928 C   0  0  0  0  0  0  0  0  0  0  0  0
   -2.0094    2.1141    0.1738 C   0  0  0  0  0  0  0  0  0  0  0  0
   -0.4605   -1.3128    0.5883 C   0  0  0  0  0  0  0  0  0  0  0  0
    0.9304   -1.3254    0.6095 C   0  0  0  0  0  0  0  0  0  0  0  0
    1.3528   -2.4760    1.1768 N   0  0  0  0  0  0  0  0  0  0  0  0
    0.2952   -3.1623    1.5009 O   0  0  0  0  0  0  0  0  0  0  0  0
   -0.7979   -2.5162    1.1774 C   0  0  0  0  0  0  0  0  0  0  0  0
   -2.1137   -2.9953    1.4533 N   0  0  0  0  0  0  0  0  0  0  0  0
    1.8571   -0.2997    0.0823 C   0  0  0  0  0  0  0  0  0  0  0  0
    3.0888   -0.0798    0.7215 C   0  0  0  0  0  0  0  0  0  0  0  0
    3.9772    0.8834    0.2327 C   0  0  0  0  0  0  0  0  0  0  0  0
    3.6486    1.6267   -0.9039 C   0  0  0  0  0  0  0  0  0  0  0  0
    2.4348    1.4016   -1.5597 C   0  0  0  0  0  0  0  0  0  0  0  0
    1.5456    0.4367   -1.0749 C   0  0  0  0  0  0  0  0  0  0  0  0
    1.9928    2.4053   -3.1231 Br  0  0  0  0  0  0  0  0  0  0  0  0
    5.1581    1.0974    0.8634 F   0  0  0  0  0  0  0  0  0  0  0  0
   -3.7401    2.6252   -1.0009 H   0  0  0  0  0  0  0  0  0  0  0  0
   -4.1289    0.3018   -1.7727 H   0  0  0  0  0  0  0  0  0  0  0  0
   -2.6216   -1.5159   -1.0530 H   0  0  0  0  0  0  0  0  0  0  0  0
   -0.3333    1.3222    1.2565 H   0  0  0  0  0  0  0  0  0  0  0  0
   -1.8398    3.1290    0.5095 H   0  0  0  0  0  0  0  0  0  0  0  0
   -2.9554   -2.4100    1.2602 H   0  0  0  0  0  0  0  0  0  0  0  0
   -2.2422   -3.9311    1.8971 H   0  0  0  0  0  0  0  0  0  0  0  0
    3.3559   -0.6438    1.6068 H   0  0  0  0  0  0  0  0  0  0  0  0
    4.3386    2.3721   -1.2783 H   0  0  0  0  0  0  0  0  0  0  0  0
    0.6254    0.2536   -1.6136 H   0  0  0  0  0  0  0  0  0  0  0  0
  1  2  2  0
  2  3  1  0
  3  4  2  0
  4  5  1  0
  5  6  2  0
  4  7  1  0
  7  8  1  0
  8  9  2  0
  9 10  1  0
 10 11  1  0
 11 12  1  0
  8 13  1  0
 13 14  2  0
 14 15  1  0
 15 16  2  0
 16 17  1  0
 17 18  2  0
 17 19  1  0
 15 20  1  0
  6  1  1  0
 11  7  2  0
 18 13  1  0
  1 21  1  0
  2 22  1  0
  3 23  1  0
  5 24  1  0
  6 25  1  0
 12 26  1  0
 12 27  1  0
 14 28  1  0
 16 29  1  0
 18 30  1  0
M  END
$$$$
