
     RDKit          3D

 30 32  0  0  0  0  0  0  0  0999 V2000
   -2.9159    2.0315   -0.9098 C   0  0  0  0  0  0  0  0  0  0  0  0
   -2.9207    1.8827    0.4798 C   0  0  0  0  0  0  0  0  0  0  0  0
   -2.1380    0.8925    1.0816 C   0  0  0  0  0  0  0  0  0  0  0  0
   -1.3443    0.0427    0.2942 C   0  0  0  0  0  0  0  0  0  0  0  0
   -1.3459    0.1975   -1.1023 C   0  0  0  0  0  0  0  0  0  0  0  0
   -2.1287    1.1897   -1.7001 C   0  0  0  0  0  0  0  0  0  0  0  0
   -0.5050   -0.9942    0.9284 C   0  0  0  0  0  0  0  0  0  0  0  0
    0.8286   -1.3062    0.6848 C   0  0  0  0  0  0  0  0  0  0  0  0
    1.1671   -2.3938    1.4104 N   0  0  0  0  0  0  0  0  0  0  0  0
    0.1129   -2.7590    2.0810 O   0  0  0  0  0  0  0  0  0  0  0  0
   -0.8995   -1.9667    1.8271 C   0  0  0  0  0  0  0  0  0  0  0  0
   -2.2042   -2.1455    2.3772 N   0  0  0  0  0  0  0  0  0  0  0  0
    1.7864   -0.5877   -0.1842 C   0  0  0  0  0  0  0  0  0  0  0  0
    2.7878   -1.3056   -0.8594 C   0  0  0  0  0  0  0  0  0  0  0  0
    3.7030   -0.6401   -1.6811 C   0  0  0  0  0  0  0  0  0  0  0  0
    3.6334    0.7477   -1.8269 C   0  0  0  0  0  0  0  0  0  0  0  0
    2.6540    1.4742   -1.1435 C   0  0  0  0  0  0  0  0  0  0  0  0
    1.7391    0.8117   -0.3184 C   0  0  0  0  0  0  0  0  0  0  0  0
    2.5690    3.3730   -1.3290 Br  0  0  0  0  0  0  0  0  0  0  0  0
    4.6583   -1.3427   -2.3386 F   0  0  0  0  0  0  0  0  0  0  0  0
   -3.5211    2.7994   -1.3739 H   0  0  0  0  0  0  0  0  0  0  0  0
   -3.5277    2.5378    1.0912 H   0  0  0  0  0  0  0  0  0  0  0  0
   -2.1382    0.8002    2.1606 H   0  0  0  0  0  0  0  0  0  0  0  0
   -0.7448   -0.4513   -1.7274 H   0  0  0  0  0  0  0  0  0  0  0  0
   -2.1256    1.3054   -2.7762 H   0  0  0  0  0  0  0  0  0  0  0  0
   -2.3784   -2.9170    3.0582 H   0  0  0  0  0  0  0  0  0  0  0  0
   -3.0047   -1.5460    2.0803 H   0  0  0  0  0  0  0  0  0  0  0  0
    2.8518   -2.3824   -0.7612 H   0  0  0  0  0  0  0  0  0  0  0  0
    4.3431    1.2588   -2.4648 H   0  0  0  0  0  0  0  0  0  0  0  0
    1.0084    1.3933    0.2277 H   0  0  0  0  0  0  0  0  0  0  0  0
  1  2  2  0
  2  3  1  0
  3  4  2  0
  4  5  1  0
  5  6  2  0
  4  7  1  0
  7  8  1  0
  8  9  2  0
  9 10  1  0
 10 11  1  0
 11 12  1  0
  8 13  1  0
 13 14  2  0
 14 15  1  0
 15 16  2  0
 16 17  1  0
 17 18  2  0
 17 19  1  0
 15 20  1  0
  6  1  1  0
 11  7  2  0
 18 13  1  0
  1 21  1  0
  2 22  1  0
  3 23  1  0
  5 24  1  0
  6 25  1  0
 12 26  1  0
 12 27  1  0
 14 28  1  0
 16 29  1  0
 18 30  1  0
M  END
$$$$
