
     RDKit          3D

 30 32  0  0  0  0  0  0  0  0999 V2000
    1.5039    2.3439    2.2834 C   0  0  0  0  0  0  0  0  0  0  0  0
    0.3175    1.9019    2.8752 C   0  0  0  0  0  0  0  0  0  0  0  0
   -0.6551    1.2605    2.1019 C   0  0  0  0  0  0  0  0  0  0  0  0
   -0.4459    1.0578    0.7282 C   0  0  0  0  0  0  0  0  0  0  0  0
    0.7488    1.5062    0.1402 C   0  0  0  0  0  0  0  0  0  0  0  0
    1.7194    2.1458    0.9170 C   0  0  0  0  0  0  0  0  0  0  0  0
   -1.4651    0.3671   -0.0880 C   0  0  0  0  0  0  0  0  0  0  0  0
   -1.2938   -0.6569   -1.0139 C   0  0  0  0  0  0  0  0  0  0  0  0
   -2.4783   -0.9171   -1.6084 N   0  0  0  0  0  0  0  0  0  0  0  0
   -3.3589   -0.1079   -1.0943 O   0  0  0  0  0  0  0  0  0  0  0  0
   -2.8085    0.6714   -0.1960 C   0  0  0  0  0  0  0  0  0  0  0  0
   -3.5133    1.6962    0.5040 N   0  0  0  0  0  0  0  0  0  0  0  0
   -0.0562   -1.4067   -1.3218 C   0  0  0  0  0  0  0  0  0  0  0  0
    0.1698   -1.8709   -2.6285 C   0  0  0  0  0  0  0  0  0  0  0  0
    1.3329   -2.5847   -2.9342 C   0  0  0  0  0  0  0  0  0  0  0  0
    2.2742   -2.8507   -1.9364 C   0  0  0  0  0  0  0  0  0  0  0  0
    2.0496   -2.4114   -0.6285 C   0  0  0  0  0  0  0  0  0  0  0  0
    0.8857   -1.6999   -0.3191 C   0  0  0  0  0  0  0  0  0  0  0  0
    3.3277   -2.7893    0.7393 Br  0  0  0  0  0  0  0  0  0  0  0  0
    1.5484   -3.0179   -4.2007 F   0  0  0  0  0  0  0  0  0  0  0  0
    2.2564    2.8387    2.8837 H   0  0  0  0  0  0  0  0  0  0  0  0
    0.1533    2.0522    3.9344 H   0  0  0  0  0  0  0  0  0  0  0  0
   -1.5620    0.9077    2.5773 H   0  0  0  0  0  0  0  0  0  0  0  0
    0.9268    1.3642   -0.9187 H   0  0  0  0  0  0  0  0  0  0  0  0
    2.6384    2.4885    0.4594 H   0  0  0  0  0  0  0  0  0  0  0  0
   -4.5365    1.8245    0.3429 H   0  0  0  0  0  0  0  0  0  0  0  0
   -3.0185    2.3534    1.1455 H   0  0  0  0  0  0  0  0  0  0  0  0
   -0.5475   -1.6682   -3.4144 H   0  0  0  0  0  0  0  0  0  0  0  0
    3.1737   -3.4025   -2.1775 H   0  0  0  0  0  0  0  0  0  0  0  0
    0.7133   -1.3957    0.7048 H   0  0  0  0  0  0  0  0  0  0  0  0
  1  2  2  0
  2  3  1  0
  3  4  2  0
  4  5  1  0
  5  6  2  0
  4  7  1  0
  7  8  1  0
  8  9  2  0
  9 10  1  0
 10 11  1  0
 11 12  1  0
  8 13  1  0
 13 14  2  0
 14 15  1  0
 15 16  2  0
 16 17  1  0
 17 18  2  0
 17 19  1  0
 15 20  1  0
  6  1  1  0
 11  7  2  0
 18 13  1  0
  1 21  1  0
  2 22  1  0
  3 23  1  0
  5 24  1  0
  6 25  1  0
 12 26  1  0
 12 27  1  0
 14 28  1  0
 16 29  1  0
 18 30  1  0
M  END
$$$$
