
     RDKit          3D

 30 32  0  0  0  0  0  0  0  0999 V2000
   -2.8067    2.0227    1.2403 C   0  0  0  0  0  0  0  0  0  0  0  0
   -3.0524    0.7153    1.6686 C   0  0  0  0  0  0  0  0  0  0  0  0
   -2.3559   -0.3529    1.0950 C   0  0  0  0  0  0  0  0  0  0  0  0
   -1.4073   -0.1185    0.0863 C   0  0  0  0  0  0  0  0  0  0  0  0
   -1.1663    1.1985   -0.3395 C   0  0  0  0  0  0  0  0  0  0  0  0
   -1.8640    2.2640    0.2373 C   0  0  0  0  0  0  0  0  0  0  0  0
   -0.6623   -1.2440   -0.5137 C   0  0  0  0  0  0  0  0  0  0  0  0
    0.7020   -1.3531   -0.7621 C   0  0  0  0  0  0  0  0  0  0  0  0
    0.9395   -2.5066   -1.4233 N   0  0  0  0  0  0  0  0  0  0  0  0
   -0.2052   -3.1034   -1.5901 O   0  0  0  0  0  0  0  0  0  0  0  0
   -1.1802   -2.3959   -1.0743 C   0  0  0  0  0  0  0  0  0  0  0  0
   -2.5556   -2.7698   -1.1462 N   0  0  0  0  0  0  0  0  0  0  0  0
    1.7764   -0.4174   -0.3641 C   0  0  0  0  0  0  0  0  0  0  0  0
    1.7156    0.2861    0.8523 C   0  0  0  0  0  0  0  0  0  0  0  0
    2.7449    1.1601    1.2150 C   0  0  0  0  0  0  0  0  0  0  0  0
    3.8487    1.3296    0.3754 C   0  0  0  0  0  0  0  0  0  0  0  0
    3.9290    0.6193   -0.8260 C   0  0  0  0  0  0  0  0  0  0  0  0
    2.9002   -0.2557   -1.1920 C   0  0  0  0  0  0  0  0  0  0  0  0
    5.4433    0.8437   -1.9680 Br  0  0  0  0  0  0  0  0  0  0  0  0
    2.6760    1.8376    2.3874 F   0  0  0  0  0  0  0  0  0  0  0  0
   -3.3458    2.8486    1.6862 H   0  0  0  0  0  0  0  0  0  0  0  0
   -3.7799    0.5299    2.4482 H   0  0  0  0  0  0  0  0  0  0  0  0
   -2.5446   -1.3591    1.4484 H   0  0  0  0  0  0  0  0  0  0  0  0
   -0.4430    1.3997   -1.1201 H   0  0  0  0  0  0  0  0  0  0  0  0
   -1.6745    3.2768   -0.0941 H   0  0  0  0  0  0  0  0  0  0  0  0
   -2.8241   -3.6756   -1.5897 H   0  0  0  0  0  0  0  0  0  0  0  0
   -3.3088   -2.1350   -0.8026 H   0  0  0  0  0  0  0  0  0  0  0  0
    0.8850    0.1464    1.5315 H   0  0  0  0  0  0  0  0  0  0  0  0
    4.6437    2.0065    0.6608 H   0  0  0  0  0  0  0  0  0  0  0  0
    2.9721   -0.7976   -2.1271 H   0  0  0  0  0  0  0  0  0  0  0  0
  1  2  2  0
  2  3  1  0
  3  4  2  0
  4  5  1  0
  5  6  2  0
  4  7  1  0
  7  8  1  0
  8  9  2  0
  9 10  1  0
 10 11  1  0
 11 12  1  0
  8 13  1  0
 13 14  2  0
 14 15  1  0
 15 16  2  0
 16 17  1  0
 17 18  2  0
 17 19  1  0
 15 20  1  0
  6  1  1  0
 11  7  2  0
 18 13  1  0
  1 21  1  0
  2 22  1  0
  3 23  1  0
  5 24  1  0
  6 25  1  0
 12 26  1  0
 12 27  1  0
 14 28  1  0
 16 29  1  0
 18 30  1  0
M  END
$$$$
