
     RDKit          3D

 30 32  0  0  0  0  0  0  0  0999 V2000
    2.8638    1.5886   -1.7001 C   0  0  0  0  0  0  0  0  0  0  0  0
    2.2491    0.3543   -1.9266 C   0  0  0  0  0  0  0  0  0  0  0  0
    1.4569   -0.2268   -0.9319 C   0  0  0  0  0  0  0  0  0  0  0  0
    1.2729    0.4267    0.2982 C   0  0  0  0  0  0  0  0  0  0  0  0
    1.8939    1.6668    0.5183 C   0  0  0  0  0  0  0  0  0  0  0  0
    2.6866    2.2441   -0.4786 C   0  0  0  0  0  0  0  0  0  0  0  0
    0.4228   -0.1782    1.3438 C   0  0  0  0  0  0  0  0  0  0  0  0
   -0.8416   -0.7451    1.2202 C   0  0  0  0  0  0  0  0  0  0  0  0
   -1.2060   -1.2746    2.4080 N   0  0  0  0  0  0  0  0  0  0  0  0
   -0.2330   -1.0602    3.2457 O   0  0  0  0  0  0  0  0  0  0  0  0
    0.7515   -0.4203    2.6639 C   0  0  0  0  0  0  0  0  0  0  0  0
    1.9767   -0.0878    3.3159 N   0  0  0  0  0  0  0  0  0  0  0  0
   -1.7147   -0.7683    0.0261 C   0  0  0  0  0  0  0  0  0  0  0  0
   -2.5650   -1.8651   -0.1934 C   0  0  0  0  0  0  0  0  0  0  0  0
   -3.3992   -1.8999   -1.3153 C   0  0  0  0  0  0  0  0  0  0  0  0
   -3.3998   -0.8358   -2.2209 C   0  0  0  0  0  0  0  0  0  0  0  0
   -2.5730    0.2697   -2.0012 C   0  0  0  0  0  0  0  0  0  0  0  0
   -1.7398    0.3086   -0.8783 C   0  0  0  0  0  0  0  0  0  0  0  0
   -2.5859    1.7319   -3.2296 Br  0  0  0  0  0  0  0  0  0  0  0  0
   -4.2072   -2.9681   -1.5255 F   0  0  0  0  0  0  0  0  0  0  0  0
    3.4764    2.0376   -2.4712 H   0  0  0  0  0  0  0  0  0  0  0  0
    2.3870   -0.1528   -2.8727 H   0  0  0  0  0  0  0  0  0  0  0  0
    0.9909   -1.1864   -1.1191 H   0  0  0  0  0  0  0  0  0  0  0  0
    1.7512    2.1943    1.4533 H   0  0  0  0  0  0  0  0  0  0  0  0
    3.1599    3.2020   -0.3057 H   0  0  0  0  0  0  0  0  0  0  0  0
    2.1047   -0.3159    4.3263 H   0  0  0  0  0  0  0  0  0  0  0  0
    2.7701    0.3424    2.7927 H   0  0  0  0  0  0  0  0  0  0  0  0
   -2.5722   -2.7004    0.4963 H   0  0  0  0  0  0  0  0  0  0  0  0
   -4.0462   -0.8672   -3.0887 H   0  0  0  0  0  0  0  0  0  0  0  0
   -1.1305    1.1861   -0.7074 H   0  0  0  0  0  0  0  0  0  0  0  0
  1  2  2  0
  2  3  1  0
  3  4  2  0
  4  5  1  0
  5  6  2  0
  4  7  1  0
  7  8  1  0
  8  9  2  0
  9 10  1  0
 10 11  1  0
 11 12  1  0
  8 13  1  0
 13 14  2  0
 14 15  1  0
 15 16  2  0
 16 17  1  0
 17 18  2  0
 17 19  1  0
 15 20  1  0
  6  1  1  0
 11  7  2  0
 18 13  1  0
  1 21  1  0
  2 22  1  0
  3 23  1  0
  5 24  1  0
  6 25  1  0
 12 26  1  0
 12 27  1  0
 14 28  1  0
 16 29  1  0
 18 30  1  0
M  END
$$$$
