
     RDKit          3D

 30 32  0  0  0  0  0  0  0  0999 V2000
   -3.0896    1.9303   -0.2090 C   0  0  0  0  0  0  0  0  0  0  0  0
   -3.0682    1.1243   -1.3505 C   0  0  0  0  0  0  0  0  0  0  0  0
   -2.1965    0.0333   -1.4223 C   0  0  0  0  0  0  0  0  0  0  0  0
   -1.3392   -0.2586   -0.3490 C   0  0  0  0  0  0  0  0  0  0  0  0
   -1.3675    0.5554    0.7959 C   0  0  0  0  0  0  0  0  0  0  0  0
   -2.2396    1.6461    0.8631 C   0  0  0  0  0  0  0  0  0  0  0  0
   -0.4067   -1.4014   -0.4282 C   0  0  0  0  0  0  0  0  0  0  0  0
    0.9467   -1.4466   -0.1095 C   0  0  0  0  0  0  0  0  0  0  0  0
    1.3857   -2.7184   -0.2270 N   0  0  0  0  0  0  0  0  0  0  0  0
    0.3737   -3.4475   -0.5995 O   0  0  0  0  0  0  0  0  0  0  0  0
   -0.7063   -2.7166   -0.7277 C   0  0  0  0  0  0  0  0  0  0  0  0
   -1.9852   -3.2452   -1.0769 N   0  0  0  0  0  0  0  0  0  0  0  0
    1.8298   -0.3213    0.2680 C   0  0  0  0  0  0  0  0  0  0  0  0
    2.8836   -0.5363    1.1722 C   0  0  0  0  0  0  0  0  0  0  0  0
    3.7295    0.5164    1.5357 C   0  0  0  0  0  0  0  0  0  0  0  0
    3.5377    1.7890    0.9916 C   0  0  0  0  0  0  0  0  0  0  0  0
    2.5052    2.0092    0.0754 C   0  0  0  0  0  0  0  0  0  0  0  0
    1.6595    0.9575   -0.2924 C   0  0  0  0  0  0  0  0  0  0  0  0
    2.2531    3.7444   -0.6815 Br  0  0  0  0  0  0  0  0  0  0  0  0
    4.7361    0.3023    2.4184 F   0  0  0  0  0  0  0  0  0  0  0  0
   -3.7639    2.7752   -0.1557 H   0  0  0  0  0  0  0  0  0  0  0  0
   -3.7242    1.3475   -2.1820 H   0  0  0  0  0  0  0  0  0  0  0  0
   -2.1783   -0.5721   -2.3201 H   0  0  0  0  0  0  0  0  0  0  0  0
   -0.7181    0.3438    1.6364 H   0  0  0  0  0  0  0  0  0  0  0  0
   -2.2568    2.2706    1.7469 H   0  0  0  0  0  0  0  0  0  0  0  0
   -2.8377   -2.6439   -1.0812 H   0  0  0  0  0  0  0  0  0  0  0  0
   -2.0849   -4.2617   -1.2913 H   0  0  0  0  0  0  0  0  0  0  0  0
    3.0422   -1.5157    1.6070 H   0  0  0  0  0  0  0  0  0  0  0  0
    4.1939    2.6013    1.2766 H   0  0  0  0  0  0  0  0  0  0  0  0
    0.8860    1.1386   -1.0270 H   0  0  0  0  0  0  0  0  0  0  0  0
  1  2  2  0
  2  3  1  0
  3  4  2  0
  4  5  1  0
  5  6  2  0
  4  7  1  0
  7  8  1  0
  8  9  2  0
  9 10  1  0
 10 11  1  0
 11 12  1  0
  8 13  1  0
 13 14  2  0
 14 15  1  0
 15 16  2  0
 16 17  1  0
 17 18  2  0
 17 19  1  0
 15 20  1  0
  6  1  1  0
 11  7  2  0
 18 13  1  0
  1 21  1  0
  2 22  1  0
  3 23  1  0
  5 24  1  0
  6 25  1  0
 12 26  1  0
 12 27  1  0
 14 28  1  0
 16 29  1  0
 18 30  1  0
M  END
$$$$
