
     RDKit          3D

 41 43  0  0  0  0  0  0  0  0999 V2000
    0.4392    3.9821    0.1140 C   0  0  0  0  0  0  0  0  0  0  0  0
   -0.0654    2.6510    0.1183 O   0  0  0  0  0  0  0  0  0  0  0  0
   -1.4191    2.3151    0.2784 C   0  0  0  0  0  0  0  0  0  0  0  0
   -2.4214    3.2908    0.4485 C   0  0  0  0  0  0  0  0  0  0  0  0
   -3.7578    2.9108    0.6057 C   0  0  0  0  0  0  0  0  0  0  0  0
   -4.1118    1.5598    0.5968 C   0  0  0  0  0  0  0  0  0  0  0  0
   -3.1240    0.5804    0.4275 C   0  0  0  0  0  0  0  0  0  0  0  0
   -1.7781    0.9591    0.2680 C   0  0  0  0  0  0  0  0  0  0  0  0
   -0.8424    0.0318    0.1028 O   0  0  0  0  0  0  0  0  0  0  0  0
   -1.0902   -1.2793    0.0858 C   0  0  0  0  0  0  0  0  0  0  0  0
   -0.1044   -2.1122   -0.1422 N   0  0  0  0  0  0  0  0  0  0  0  0
    1.2661   -1.6990   -0.3041 C   0  0  0  0  0  0  0  0  0  0  0  0
    1.8638   -0.7775    0.5748 C   0  0  0  0  0  0  0  0  0  0  0  0
    3.2016   -0.4069    0.4099 C   0  0  0  0  0  0  0  0  0  0  0  0
    3.9716   -0.9678   -0.6272 C   0  0  0  0  0  0  0  0  0  0  0  0
    3.3812   -1.9058   -1.4819 C   0  0  0  0  0  0  0  0  0  0  0  0
    2.0435   -2.2759   -1.3176 C   0  0  0  0  0  0  0  0  0  0  0  0
    5.3174   -0.6295   -0.8423 O   0  0  0  0  0  0  0  0  0  0  0  0
    6.0652    0.3066   -0.0690 C   0  0  0  0  0  0  0  0  0  0  0  0
    7.3470    0.3857   -0.5779 F   0  0  0  0  0  0  0  0  0  0  0  0
    6.1336   -0.1101    1.2484 F   0  0  0  0  0  0  0  0  0  0  0  0
    5.4798    1.5581   -0.1384 F   0  0  0  0  0  0  0  0  0  0  0  0
   -2.4255   -1.7352    0.2694 C   0  0  0  0  0  0  0  0  0  0  0  0
   -3.4385   -0.7785    0.4248 C   0  0  0  0  0  0  0  0  0  0  0  0
   -2.7897   -3.1684    0.3601 C   0  0  0  0  0  0  0  0  0  0  0  0
   -2.1022   -3.9515    1.0690 O   0  0  0  0  0  0  0  0  0  0  0  0
   -3.9455   -3.6685   -0.3144 N   0  0  0  0  0  0  0  0  0  0  0  0
    0.2190    4.4770    1.0835 H   0  0  0  0  0  0  0  0  0  0  0  0
   -0.0115    4.5586   -0.7213 H   0  0  0  0  0  0  0  0  0  0  0  0
    1.5389    3.9519   -0.0278 H   0  0  0  0  0  0  0  0  0  0  0  0
   -2.1783    4.3444    0.4609 H   0  0  0  0  0  0  0  0  0  0  0  0
   -4.5213    3.6668    0.7364 H   0  0  0  0  0  0  0  0  0  0  0  0
   -5.1515    1.2818    0.7225 H   0  0  0  0  0  0  0  0  0  0  0  0
   -0.2935   -3.1239   -0.3152 H   0  0  0  0  0  0  0  0  0  0  0  0
    1.3018   -0.3579    1.3992 H   0  0  0  0  0  0  0  0  0  0  0  0
    3.6255    0.3091    1.0993 H   0  0  0  0  0  0  0  0  0  0  0  0
    3.9637   -2.3514   -2.2783 H   0  0  0  0  0  0  0  0  0  0  0  0
    1.6067   -3.0040   -1.9896 H   0  0  0  0  0  0  0  0  0  0  0  0
   -4.4653   -1.0926    0.5761 H   0  0  0  0  0  0  0  0  0  0  0  0
   -4.2190   -4.6712   -0.2150 H   0  0  0  0  0  0  0  0  0  0  0  0
   -4.5095   -3.0536   -0.9422 H   0  0  0  0  0  0  0  0  0  0  0  0
  1  2  1  0
  2  3  1  0
  3  4  2  0
  4  5  1  0
  5  6  2  0
  6  7  1  0
  7  8  2  0
  8  9  1  0
  9 10  1  0
 10 11  2  0
 11 12  1  0
 12 13  2  0
 13 14  1  0
 14 15  2  0
 15 16  1  0
 16 17  2  0
 15 18  1  0
 18 19  1  0
 19 20  1  0
 19 21  1  0
 19 22  1  0
 10 23  1  0
 23 24  2  0
 23 25  1  0
 25 26  2  0
 25 27  1  0
  8  3  1  0
 24  7  1  0
 17 12  1  0
  1 28  1  0
  1 29  1  0
  1 30  1  0
  4 31  1  0
  5 32  1  0
  6 33  1  0
 11 34  1  0
 13 35  1  0
 14 36  1  0
 16 37  1  0
 17 38  1  0
 24 39  1  0
 27 40  1  0
 27 41  1  0
M  CHG  1  11   1
M  END
$$$$
