
     RDKit          3D

 41 43  0  0  0  0  0  0  0  0999 V2000
   -0.8049    3.7625   -1.0994 C   0  0  0  0  0  0  0  0  0  0  0  0
   -0.8724    2.3751   -0.7881 O   0  0  0  0  0  0  0  0  0  0  0  0
   -2.0650    1.6429   -0.6766 C   0  0  0  0  0  0  0  0  0  0  0  0
   -3.3302    2.2313   -0.8730 C   0  0  0  0  0  0  0  0  0  0  0  0
   -4.4928    1.4645   -0.7488 C   0  0  0  0  0  0  0  0  0  0  0  0
   -4.4110    0.1074   -0.4293 C   0  0  0  0  0  0  0  0  0  0  0  0
   -3.1584   -0.4887   -0.2314 C   0  0  0  0  0  0  0  0  0  0  0  0
   -1.9861    0.2795   -0.3564 C   0  0  0  0  0  0  0  0  0  0  0  0
   -0.7992   -0.2839   -0.1648 O   0  0  0  0  0  0  0  0  0  0  0  0
   -0.6283   -1.5692    0.1508 C   0  0  0  0  0  0  0  0  0  0  0  0
    0.5848   -2.0189    0.3617 N   0  0  0  0  0  0  0  0  0  0  0  0
    1.7654   -1.1993    0.2703 C   0  0  0  0  0  0  0  0  0  0  0  0
    1.8352    0.0608    0.8913 C   0  0  0  0  0  0  0  0  0  0  0  0
    3.0005    0.8283    0.8061 C   0  0  0  0  0  0  0  0  0  0  0  0
    4.1249    0.3385    0.1141 C   0  0  0  0  0  0  0  0  0  0  0  0
    4.0610   -0.9286   -0.4770 C   0  0  0  0  0  0  0  0  0  0  0  0
    2.8958   -1.6957   -0.3926 C   0  0  0  0  0  0  0  0  0  0  0  0
    5.3191    1.0673   -0.0071 O   0  0  0  0  0  0  0  0  0  0  0  0
    5.5483    2.3682    0.5300 C   0  0  0  0  0  0  0  0  0  0  0  0
    6.8299    2.7679    0.2049 F   0  0  0  0  0  0  0  0  0  0  0  0
    5.4250    2.3437    1.9077 F   0  0  0  0  0  0  0  0  0  0  0  0
    4.6493    3.2716   -0.0082 F   0  0  0  0  0  0  0  0  0  0  0  0
   -1.7692   -2.4132    0.2585 C   0  0  0  0  0  0  0  0  0  0  0  0
   -3.0370   -1.8429    0.0798 C   0  0  0  0  0  0  0  0  0  0  0  0
   -1.6869   -3.8685    0.5190 C   0  0  0  0  0  0  0  0  0  0  0  0
   -0.9073   -4.5898   -0.1592 O   0  0  0  0  0  0  0  0  0  0  0  0
   -2.5276   -4.4767    1.5006 N   0  0  0  0  0  0  0  0  0  0  0  0
   -1.2511    3.9518   -2.0985 H   0  0  0  0  0  0  0  0  0  0  0  0
    0.2584    4.0777   -1.1195 H   0  0  0  0  0  0  0  0  0  0  0  0
   -1.3366    4.3539   -0.3243 H   0  0  0  0  0  0  0  0  0  0  0  0
   -3.4259    3.2795   -1.1210 H   0  0  0  0  0  0  0  0  0  0  0  0
   -5.4607    1.9244   -0.9015 H   0  0  0  0  0  0  0  0  0  0  0  0
   -5.3212   -0.4733   -0.3382 H   0  0  0  0  0  0  0  0  0  0  0  0
    0.7558   -3.0238    0.5813 H   0  0  0  0  0  0  0  0  0  0  0  0
    0.9960    0.4436    1.4577 H   0  0  0  0  0  0  0  0  0  0  0  0
    3.0159    1.7950    1.2889 H   0  0  0  0  0  0  0  0  0  0  0  0
    4.9209   -1.3215   -1.0047 H   0  0  0  0  0  0  0  0  0  0  0  0
    2.8675   -2.6741   -0.8557 H   0  0  0  0  0  0  0  0  0  0  0  0
   -3.9259   -2.4596    0.1552 H   0  0  0  0  0  0  0  0  0  0  0  0
   -3.1626   -3.8990    2.0949 H   0  0  0  0  0  0  0  0  0  0  0  0
   -2.4936   -5.5087    1.6554 H   0  0  0  0  0  0  0  0  0  0  0  0
  1  2  1  0
  2  3  1  0
  3  4  2  0
  4  5  1  0
  5  6  2  0
  6  7  1  0
  7  8  2  0
  8  9  1  0
  9 10  1  0
 10 11  2  0
 11 12  1  0
 12 13  2  0
 13 14  1  0
 14 15  2  0
 15 16  1  0
 16 17  2  0
 15 18  1  0
 18 19  1  0
 19 20  1  0
 19 21  1  0
 19 22  1  0
 10 23  1  0
 23 24  2  0
 23 25  1  0
 25 26  2  0
 25 27  1  0
  8  3  1  0
 24  7  1  0
 17 12  1  0
  1 28  1  0
  1 29  1  0
  1 30  1  0
  4 31  1  0
  5 32  1  0
  6 33  1  0
 11 34  1  0
 13 35  1  0
 14 36  1  0
 16 37  1  0
 17 38  1  0
 24 39  1  0
 27 40  1  0
 27 41  1  0
M  CHG  1  11   1
M  END
$$$$
