
     RDKit          3D

 41 43  0  0  0  0  0  0  0  0999 V2000
   -1.1607    3.8046    0.5648 C   0  0  0  0  0  0  0  0  0  0  0  0
   -1.1009    2.3888    0.4289 O   0  0  0  0  0  0  0  0  0  0  0  0
   -2.2092    1.5333    0.5312 C   0  0  0  0  0  0  0  0  0  0  0  0
   -3.5104    2.0141    0.7791 C   0  0  0  0  0  0  0  0  0  0  0  0
   -4.5856    1.1254    0.8746 C   0  0  0  0  0  0  0  0  0  0  0  0
   -4.3799   -0.2480    0.7262 C   0  0  0  0  0  0  0  0  0  0  0  0
   -3.0906   -0.7379    0.4786 C   0  0  0  0  0  0  0  0  0  0  0  0
   -2.0061    0.1535    0.3809 C   0  0  0  0  0  0  0  0  0  0  0  0
   -0.7851   -0.3097    0.1416 O   0  0  0  0  0  0  0  0  0  0  0  0
   -0.4975   -1.6041   -0.0090 C   0  0  0  0  0  0  0  0  0  0  0  0
    0.7310   -1.9552   -0.3005 N   0  0  0  0  0  0  0  0  0  0  0  0
    1.8244   -1.0223   -0.3967 C   0  0  0  0  0  0  0  0  0  0  0  0
    2.7428   -1.1447   -1.4484 C   0  0  0  0  0  0  0  0  0  0  0  0
    3.8230   -0.2640   -1.5518 C   0  0  0  0  0  0  0  0  0  0  0  0
    4.0161    0.7425   -0.5986 C   0  0  0  0  0  0  0  0  0  0  0  0
    3.1114    0.8510    0.4750 C   0  0  0  0  0  0  0  0  0  0  0  0
    2.0313   -0.0304    0.5790 C   0  0  0  0  0  0  0  0  0  0  0  0
    5.1152    1.6024   -0.7556 O   0  0  0  0  0  0  0  0  0  0  0  0
    5.4518    2.6770    0.1193 C   0  0  0  0  0  0  0  0  0  0  0  0
    6.5872    3.3035   -0.3567 F   0  0  0  0  0  0  0  0  0  0  0  0
    4.4199    3.5974    0.1633 F   0  0  0  0  0  0  0  0  0  0  0  0
    5.7085    2.1946    1.3902 F   0  0  0  0  0  0  0  0  0  0  0  0
   -1.5414   -2.5643    0.1053 C   0  0  0  0  0  0  0  0  0  0  0  0
   -2.8451   -2.1036    0.3364 C   0  0  0  0  0  0  0  0  0  0  0  0
   -1.3102   -4.0266    0.0479 C   0  0  0  0  0  0  0  0  0  0  0  0
   -0.3543   -4.5410    0.6881 O   0  0  0  0  0  0  0  0  0  0  0  0
   -2.1912   -4.8728   -0.6929 N   0  0  0  0  0  0  0  0  0  0  0  0
   -0.1412    4.2236    0.4401 H   0  0  0  0  0  0  0  0  0  0  0  0
   -1.5357    4.0757    1.5742 H   0  0  0  0  0  0  0  0  0  0  0  0
   -1.8207    4.2356   -0.2174 H   0  0  0  0  0  0  0  0  0  0  0  0
   -3.7011    3.0717    0.8996 H   0  0  0  0  0  0  0  0  0  0  0  0
   -5.5818    1.5032    1.0657 H   0  0  0  0  0  0  0  0  0  0  0  0
   -5.2232   -0.9236    0.8056 H   0  0  0  0  0  0  0  0  0  0  0  0
    0.9512   -2.9375   -0.5757 H   0  0  0  0  0  0  0  0  0  0  0  0
    2.6125   -1.9167   -2.1965 H   0  0  0  0  0  0  0  0  0  0  0  0
    4.5156   -0.3643   -2.3779 H   0  0  0  0  0  0  0  0  0  0  0  0
    3.2350    1.6052    1.2391 H   0  0  0  0  0  0  0  0  0  0  0  0
    1.3684    0.0515    1.4308 H   0  0  0  0  0  0  0  0  0  0  0  0
   -3.6619   -2.8097    0.4379 H   0  0  0  0  0  0  0  0  0  0  0  0
   -2.0459   -5.9068   -0.6977 H   0  0  0  0  0  0  0  0  0  0  0  0
   -2.9657   -4.4716   -1.2668 H   0  0  0  0  0  0  0  0  0  0  0  0
  1  2  1  0
  2  3  1  0
  3  4  2  0
  4  5  1  0
  5  6  2  0
  6  7  1  0
  7  8  2  0
  8  9  1  0
  9 10  1  0
 10 11  2  0
 11 12  1  0
 12 13  2  0
 13 14  1  0
 14 15  2  0
 15 16  1  0
 16 17  2  0
 15 18  1  0
 18 19  1  0
 19 20  1  0
 19 21  1  0
 19 22  1  0
 10 23  1  0
 23 24  2  0
 23 25  1  0
 25 26  2  0
 25 27  1  0
  8  3  1  0
 24  7  1  0
 17 12  1  0
  1 28  1  0
  1 29  1  0
  1 30  1  0
  4 31  1  0
  5 32  1  0
  6 33  1  0
 11 34  1  0
 13 35  1  0
 14 36  1  0
 16 37  1  0
 17 38  1  0
 24 39  1  0
 27 40  1  0
 27 41  1  0
M  CHG  1  11   1
M  END
$$$$
