
     RDKit          3D

 41 43  0  0  0  0  0  0  0  0999 V2000
   -1.5647    3.6823   -1.1993 C   0  0  0  0  0  0  0  0  0  0  0  0
   -1.3941    2.3689   -0.6774 O   0  0  0  0  0  0  0  0  0  0  0  0
   -2.4438    1.5450   -0.2413 C   0  0  0  0  0  0  0  0  0  0  0  0
   -3.7910    1.9554   -0.2869 C   0  0  0  0  0  0  0  0  0  0  0  0
   -4.8050    1.1023    0.1591 C   0  0  0  0  0  0  0  0  0  0  0  0
   -4.4918   -0.1651    0.6554 C   0  0  0  0  0  0  0  0  0  0  0  0
   -3.1557   -0.5847    0.7050 C   0  0  0  0  0  0  0  0  0  0  0  0
   -2.1325    0.2708    0.2562 C   0  0  0  0  0  0  0  0  0  0  0  0
   -0.8668   -0.1282    0.2986 O   0  0  0  0  0  0  0  0  0  0  0  0
   -0.4779   -1.3184    0.7601 C   0  0  0  0  0  0  0  0  0  0  0  0
    0.7912   -1.6407    0.7055 N   0  0  0  0  0  0  0  0  0  0  0  0
    1.8210   -0.7472    0.2406 C   0  0  0  0  0  0  0  0  0  0  0  0
    2.8260   -1.2364   -0.6054 C   0  0  0  0  0  0  0  0  0  0  0  0
    3.8501   -0.3962   -1.0526 C   0  0  0  0  0  0  0  0  0  0  0  0
    3.8942    0.9503   -0.6424 C   0  0  0  0  0  0  0  0  0  0  0  0
    2.9052    1.4303    0.2237 C   0  0  0  0  0  0  0  0  0  0  0  0
    1.8818    0.5904    0.6712 C   0  0  0  0  0  0  0  0  0  0  0  0
    4.8966    1.8399   -1.0618 O   0  0  0  0  0  0  0  0  0  0  0  0
    5.9730    1.5142   -1.9385 C   0  0  0  0  0  0  0  0  0  0  0  0
    5.4818    1.1021   -3.1643 F   0  0  0  0  0  0  0  0  0  0  0  0
    6.7547    0.5167   -1.3837 F   0  0  0  0  0  0  0  0  0  0  0  0
    6.7534    2.6384   -2.1267 F   0  0  0  0  0  0  0  0  0  0  0  0
   -1.4573   -2.2236    1.2562 C   0  0  0  0  0  0  0  0  0  0  0  0
   -2.8042   -1.8387    1.2047 C   0  0  0  0  0  0  0  0  0  0  0  0
   -1.1199   -3.5271    1.8746 C   0  0  0  0  0  0  0  0  0  0  0  0
   -0.1832   -3.6048    2.7141 O   0  0  0  0  0  0  0  0  0  0  0  0
   -1.8784   -4.6970    1.5631 N   0  0  0  0  0  0  0  0  0  0  0  0
   -0.5709    4.0995   -1.4617 H   0  0  0  0  0  0  0  0  0  0  0  0
   -2.0356    4.3379   -0.4367 H   0  0  0  0  0  0  0  0  0  0  0  0
   -2.1905    3.6505   -2.1161 H   0  0  0  0  0  0  0  0  0  0  0  0
   -4.0648    2.9308   -0.6648 H   0  0  0  0  0  0  0  0  0  0  0  0
   -5.8372    1.4257    0.1210 H   0  0  0  0  0  0  0  0  0  0  0  0
   -5.2889   -0.8132    0.9996 H   0  0  0  0  0  0  0  0  0  0  0  0
    1.1005   -2.6158    0.9122 H   0  0  0  0  0  0  0  0  0  0  0  0
    2.8072   -2.2698   -0.9285 H   0  0  0  0  0  0  0  0  0  0  0  0
    4.6000   -0.8062   -1.7139 H   0  0  0  0  0  0  0  0  0  0  0  0
    2.9349    2.4595    0.5586 H   0  0  0  0  0  0  0  0  0  0  0  0
    1.1500    0.9804    1.3668 H   0  0  0  0  0  0  0  0  0  0  0  0
   -3.5746   -2.5014    1.5832 H   0  0  0  0  0  0  0  0  0  0  0  0
   -1.6608   -5.6044    2.0316 H   0  0  0  0  0  0  0  0  0  0  0  0
   -2.6319   -4.6724    0.8407 H   0  0  0  0  0  0  0  0  0  0  0  0
  1  2  1  0
  2  3  1  0
  3  4  2  0
  4  5  1  0
  5  6  2  0
  6  7  1  0
  7  8  2  0
  8  9  1  0
  9 10  1  0
 10 11  2  0
 11 12  1  0
 12 13  2  0
 13 14  1  0
 14 15  2  0
 15 16  1  0
 16 17  2  0
 15 18  1  0
 18 19  1  0
 19 20  1  0
 19 21  1  0
 19 22  1  0
 10 23  1  0
 23 24  2  0
 23 25  1  0
 25 26  2  0
 25 27  1  0
  8  3  1  0
 24  7  1  0
 17 12  1  0
  1 28  1  0
  1 29  1  0
  1 30  1  0
  4 31  1  0
  5 32  1  0
  6 33  1  0
 11 34  1  0
 13 35  1  0
 14 36  1  0
 16 37  1  0
 17 38  1  0
 24 39  1  0
 27 40  1  0
 27 41  1  0
M  CHG  1  11   1
M  END
$$$$
