
     RDKit          3D

 41 43  0  0  0  0  0  0  0  0999 V2000
   -1.5634    3.3557   -1.9313 C   0  0  0  0  0  0  0  0  0  0  0  0
   -1.3993    2.1067   -1.2682 O   0  0  0  0  0  0  0  0  0  0  0  0
   -2.4436    1.2093   -0.9948 C   0  0  0  0  0  0  0  0  0  0  0  0
   -3.7787    1.4753   -1.3584 C   0  0  0  0  0  0  0  0  0  0  0  0
   -4.7874    0.5513   -1.0689 C   0  0  0  0  0  0  0  0  0  0  0  0
   -4.4809   -0.6445   -0.4157 C   0  0  0  0  0  0  0  0  0  0  0  0
   -3.1568   -0.9204   -0.0495 C   0  0  0  0  0  0  0  0  0  0  0  0
   -2.1390    0.0074   -0.3385 C   0  0  0  0  0  0  0  0  0  0  0  0
   -0.8835   -0.2556    0.0045 O   0  0  0  0  0  0  0  0  0  0  0  0
   -0.5004   -1.3743    0.6230 C   0  0  0  0  0  0  0  0  0  0  0  0
    0.7717   -1.5580    0.8803 N   0  0  0  0  0  0  0  0  0  0  0  0
    1.8001   -0.6116    0.5332 C   0  0  0  0  0  0  0  0  0  0  0  0
    2.7991   -0.3100    1.4687 C   0  0  0  0  0  0  0  0  0  0  0  0
    3.8235    0.5867    1.1503 C   0  0  0  0  0  0  0  0  0  0  0  0
    3.8738    1.1841   -0.1241 C   0  0  0  0  0  0  0  0  0  0  0  0
    2.8909    0.8604   -1.0664 C   0  0  0  0  0  0  0  0  0  0  0  0
    1.8674   -0.0364   -0.7484 C   0  0  0  0  0  0  0  0  0  0  0  0
    4.8766    2.0933   -0.4980 O   0  0  0  0  0  0  0  0  0  0  0  0
    5.9473    2.5283    0.3373 C   0  0  0  0  0  0  0  0  0  0  0  0
    6.7290    1.4497    0.7110 F   0  0  0  0  0  0  0  0  0  0  0  0
    5.4483    3.1615    1.4615 F   0  0  0  0  0  0  0  0  0  0  0  0
    6.7301    3.4225   -0.3668 F   0  0  0  0  0  0  0  0  0  0  0  0
   -1.4833   -2.3406    0.9777 C   0  0  0  0  0  0  0  0  0  0  0  0
   -2.8147   -2.0995    0.6121 C   0  0  0  0  0  0  0  0  0  0  0  0
   -1.1791   -3.5733    1.7395 C   0  0  0  0  0  0  0  0  0  0  0  0
   -0.4987   -3.5112    2.7984 O   0  0  0  0  0  0  0  0  0  0  0  0
   -1.6985   -4.8339    1.3138 N   0  0  0  0  0  0  0  0  0  0  0  0
   -1.9679    3.1952   -2.9529 H   0  0  0  0  0  0  0  0  0  0  0  0
   -2.2446    4.0108   -1.3483 H   0  0  0  0  0  0  0  0  0  0  0  0
   -0.5759    3.8540   -2.0143 H   0  0  0  0  0  0  0  0  0  0  0  0
   -4.0471    2.3921   -1.8651 H   0  0  0  0  0  0  0  0  0  0  0  0
   -5.8104    0.7638   -1.3516 H   0  0  0  0  0  0  0  0  0  0  0  0
   -5.2742   -1.3494   -0.1972 H   0  0  0  0  0  0  0  0  0  0  0  0
    1.1009   -2.4073    1.3881 H   0  0  0  0  0  0  0  0  0  0  0  0
    2.7752   -0.7631    2.4520 H   0  0  0  0  0  0  0  0  0  0  0  0
    4.5687    0.8043    1.9019 H   0  0  0  0  0  0  0  0  0  0  0  0
    2.9258    1.3007   -2.0549 H   0  0  0  0  0  0  0  0  0  0  0  0
    1.1414   -0.2944   -1.5085 H   0  0  0  0  0  0  0  0  0  0  0  0
   -3.5869   -2.8166    0.8681 H   0  0  0  0  0  0  0  0  0  0  0  0
   -2.2421   -4.9178    0.4263 H   0  0  0  0  0  0  0  0  0  0  0  0
   -1.5132   -5.6953    1.8741 H   0  0  0  0  0  0  0  0  0  0  0  0
  1  2  1  0
  2  3  1  0
  3  4  2  0
  4  5  1  0
  5  6  2  0
  6  7  1  0
  7  8  2  0
  8  9  1  0
  9 10  1  0
 10 11  2  0
 11 12  1  0
 12 13  2  0
 13 14  1  0
 14 15  2  0
 15 16  1  0
 16 17  2  0
 15 18  1  0
 18 19  1  0
 19 20  1  0
 19 21  1  0
 19 22  1  0
 10 23  1  0
 23 24  2  0
 23 25  1  0
 25 26  2  0
 25 27  1  0
  8  3  1  0
 24  7  1  0
 17 12  1  0
  1 28  1  0
  1 29  1  0
  1 30  1  0
  4 31  1  0
  5 32  1  0
  6 33  1  0
 11 34  1  0
 13 35  1  0
 14 36  1  0
 16 37  1  0
 17 38  1  0
 24 39  1  0
 27 40  1  0
 27 41  1  0
M  CHG  1  11   1
M  END
$$$$
