
     RDKit          3D

 41 43  0  0  0  0  0  0  0  0999 V2000
   -1.9145    3.7064   -0.1007 C   0  0  0  0  0  0  0  0  0  0  0  0
   -1.6224    2.3182    0.0182 O   0  0  0  0  0  0  0  0  0  0  0  0
   -2.5915    1.3036    0.0633 C   0  0  0  0  0  0  0  0  0  0  0  0
   -3.9717    1.5777   -0.0107 C   0  0  0  0  0  0  0  0  0  0  0  0
   -4.9027    0.5358    0.0390 C   0  0  0  0  0  0  0  0  0  0  0  0
   -4.4732   -0.7873    0.1639 C   0  0  0  0  0  0  0  0  0  0  0  0
   -3.1032   -1.0725    0.2377 C   0  0  0  0  0  0  0  0  0  0  0  0
   -2.1632   -0.0265    0.1870 C   0  0  0  0  0  0  0  0  0  0  0  0
   -0.8648   -0.2966    0.2522 O   0  0  0  0  0  0  0  0  0  0  0  0
   -0.3675   -1.5288    0.3759 C   0  0  0  0  0  0  0  0  0  0  0  0
    0.9324   -1.6958    0.3725 N   0  0  0  0  0  0  0  0  0  0  0  0
    1.8755   -0.6083    0.3188 C   0  0  0  0  0  0  0  0  0  0  0  0
    1.7332    0.5279    1.1355 C   0  0  0  0  0  0  0  0  0  0  0  0
    2.6753    1.5587    1.0814 C   0  0  0  0  0  0  0  0  0  0  0  0
    3.7826    1.4688    0.2303 C   0  0  0  0  0  0  0  0  0  0  0  0
    3.9409    0.3194   -0.5679 C   0  0  0  0  0  0  0  0  0  0  0  0
    2.9981   -0.7117   -0.5142 C   0  0  0  0  0  0  0  0  0  0  0  0
    4.6954    2.5359    0.2154 O   0  0  0  0  0  0  0  0  0  0  0  0
    5.8706    2.6035   -0.5894 C   0  0  0  0  0  0  0  0  0  0  0  0
    6.5161    3.7991   -0.3404 F   0  0  0  0  0  0  0  0  0  0  0  0
    5.5343    2.5492   -1.9302 F   0  0  0  0  0  0  0  0  0  0  0  0
    6.7247    1.5618   -0.2745 F   0  0  0  0  0  0  0  0  0  0  0  0
   -1.2616   -2.6323    0.4614 C   0  0  0  0  0  0  0  0  0  0  0  0
   -2.6379   -2.3803    0.3741 C   0  0  0  0  0  0  0  0  0  0  0  0
   -0.8135   -4.0253    0.6937 C   0  0  0  0  0  0  0  0  0  0  0  0
    0.0557   -4.2713    1.5724 O   0  0  0  0  0  0  0  0  0  0  0  0
   -1.3917   -5.1063   -0.0398 N   0  0  0  0  0  0  0  0  0  0  0  0
   -2.4563    3.9026   -1.0500 H   0  0  0  0  0  0  0  0  0  0  0  0
   -2.5234    4.0438    0.7645 H   0  0  0  0  0  0  0  0  0  0  0  0
   -0.9634    4.2770   -0.1099 H   0  0  0  0  0  0  0  0  0  0  0  0
   -4.3350    2.5917   -0.1067 H   0  0  0  0  0  0  0  0  0  0  0  0
   -5.9611    0.7553   -0.0181 H   0  0  0  0  0  0  0  0  0  0  0  0
   -5.2074   -1.5831    0.2036 H   0  0  0  0  0  0  0  0  0  0  0  0
    1.3443   -2.6527    0.3106 H   0  0  0  0  0  0  0  0  0  0  0  0
    0.9051    0.6103    1.8277 H   0  0  0  0  0  0  0  0  0  0  0  0
    2.5486    2.4302    1.7113 H   0  0  0  0  0  0  0  0  0  0  0  0
    4.7866    0.2091   -1.2314 H   0  0  0  0  0  0  0  0  0  0  0  0
    3.1352   -1.5898   -1.1330 H   0  0  0  0  0  0  0  0  0  0  0  0
   -3.3466   -3.1981    0.4451 H   0  0  0  0  0  0  0  0  0  0  0  0
   -2.0824   -4.9297   -0.8026 H   0  0  0  0  0  0  0  0  0  0  0  0
   -1.0997   -6.0895    0.1560 H   0  0  0  0  0  0  0  0  0  0  0  0
  1  2  1  0
  2  3  1  0
  3  4  2  0
  4  5  1  0
  5  6  2  0
  6  7  1  0
  7  8  2  0
  8  9  1  0
  9 10  1  0
 10 11  2  0
 11 12  1  0
 12 13  2  0
 13 14  1  0
 14 15  2  0
 15 16  1  0
 16 17  2  0
 15 18  1  0
 18 19  1  0
 19 20  1  0
 19 21  1  0
 19 22  1  0
 10 23  1  0
 23 24  2  0
 23 25  1  0
 25 26  2  0
 25 27  1  0
  8  3  1  0
 24  7  1  0
 17 12  1  0
  1 28  1  0
  1 29  1  0
  1 30  1  0
  4 31  1  0
  5 32  1  0
  6 33  1  0
 11 34  1  0
 13 35  1  0
 14 36  1  0
 16 37  1  0
 17 38  1  0
 24 39  1  0
 27 40  1  0
 27 41  1  0
M  CHG  1  11   1
M  END
$$$$
