
     RDKit          3D

 41 43  0  0  0  0  0  0  0  0999 V2000
   -0.1853    3.5578   -1.9245 C   0  0  0  0  0  0  0  0  0  0  0  0
   -0.4757    2.2994   -1.3257 O   0  0  0  0  0  0  0  0  0  0  0  0
   -1.7665    1.7662   -1.1836 C   0  0  0  0  0  0  0  0  0  0  0  0
   -2.9151    2.4453   -1.6366 C   0  0  0  0  0  0  0  0  0  0  0  0
   -4.1822    1.8770   -1.4732 C   0  0  0  0  0  0  0  0  0  0  0  0
   -4.3215    0.6309   -0.8580 C   0  0  0  0  0  0  0  0  0  0  0  0
   -3.1865   -0.0543   -0.4041 C   0  0  0  0  0  0  0  0  0  0  0  0
   -1.9096    0.5140   -0.5677 C   0  0  0  0  0  0  0  0  0  0  0  0
   -0.8335   -0.1369   -0.1422 O   0  0  0  0  0  0  0  0  0  0  0  0
   -0.8744   -1.3275    0.4591 C   0  0  0  0  0  0  0  0  0  0  0  0
    0.2497   -1.9144    0.7900 N   0  0  0  0  0  0  0  0  0  0  0  0
    1.5457   -1.3117    0.6102 C   0  0  0  0  0  0  0  0  0  0  0  0
    1.7942    0.0210    0.9856 C   0  0  0  0  0  0  0  0  0  0  0  0
    3.0657    0.5780    0.8203 C   0  0  0  0  0  0  0  0  0  0  0  0
    4.1175   -0.1962    0.2939 C   0  0  0  0  0  0  0  0  0  0  0  0
    3.8734   -1.5304   -0.0515 C   0  0  0  0  0  0  0  0  0  0  0  0
    2.6020   -2.0872    0.1129 C   0  0  0  0  0  0  0  0  0  0  0  0
    5.4125    0.3120    0.1023 O   0  0  0  0  0  0  0  0  0  0  0  0
    5.8266    1.6443    0.3973 C   0  0  0  0  0  0  0  0  0  0  0  0
    5.6672    1.9053    1.7465 F   0  0  0  0  0  0  0  0  0  0  0  0
    7.1622    1.7808    0.0722 F   0  0  0  0  0  0  0  0  0  0  0  0
    5.0915    2.5484   -0.3484 F   0  0  0  0  0  0  0  0  0  0  0  0
   -2.1350   -1.9485    0.6827 C   0  0  0  0  0  0  0  0  0  0  0  0
   -3.2878   -1.2950    0.2251 C   0  0  0  0  0  0  0  0  0  0  0  0
   -2.2936   -3.2219    1.4232 C   0  0  0  0  0  0  0  0  0  0  0  0
   -1.6688   -3.4079    2.5018 O   0  0  0  0  0  0  0  0  0  0  0  0
   -3.1874   -4.2310    0.9500 N   0  0  0  0  0  0  0  0  0  0  0  0
   -0.5235    3.5644   -2.9822 H   0  0  0  0  0  0  0  0  0  0  0  0
    0.9110    3.7256   -1.9009 H   0  0  0  0  0  0  0  0  0  0  0  0
   -0.6823    4.3737   -1.3585 H   0  0  0  0  0  0  0  0  0  0  0  0
   -2.8395    3.4117   -2.1156 H   0  0  0  0  0  0  0  0  0  0  0  0
   -5.0593    2.4057   -1.8237 H   0  0  0  0  0  0  0  0  0  0  0  0
   -5.3105    0.2056   -0.7366 H   0  0  0  0  0  0  0  0  0  0  0  0
    0.2550   -2.9056    1.1164 H   0  0  0  0  0  0  0  0  0  0  0  0
    1.0102    0.6257    1.4229 H   0  0  0  0  0  0  0  0  0  0  0  0
    3.2182    1.6070    1.1128 H   0  0  0  0  0  0  0  0  0  0  0  0
    4.6749   -2.1398   -0.4495 H   0  0  0  0  0  0  0  0  0  0  0  0
    2.4350   -3.1217   -0.1600 H   0  0  0  0  0  0  0  0  0  0  0  0
   -4.2647   -1.7367    0.3879 H   0  0  0  0  0  0  0  0  0  0  0  0
   -3.6857   -4.1232    0.0389 H   0  0  0  0  0  0  0  0  0  0  0  0
   -3.3242   -5.1099    1.4968 H   0  0  0  0  0  0  0  0  0  0  0  0
  1  2  1  0
  2  3  1  0
  3  4  2  0
  4  5  1  0
  5  6  2  0
  6  7  1  0
  7  8  2  0
  8  9  1  0
  9 10  1  0
 10 11  2  0
 11 12  1  0
 12 13  2  0
 13 14  1  0
 14 15  2  0
 15 16  1  0
 16 17  2  0
 15 18  1  0
 18 19  1  0
 19 20  1  0
 19 21  1  0
 19 22  1  0
 10 23  1  0
 23 24  2  0
 23 25  1  0
 25 26  2  0
 25 27  1  0
  8  3  1  0
 24  7  1  0
 17 12  1  0
  1 28  1  0
  1 29  1  0
  1 30  1  0
  4 31  1  0
  5 32  1  0
  6 33  1  0
 11 34  1  0
 13 35  1  0
 14 36  1  0
 16 37  1  0
 17 38  1  0
 24 39  1  0
 27 40  1  0
 27 41  1  0
M  CHG  1  11   1
M  END
$$$$
