
     RDKit          3D

 41 43  0  0  0  0  0  0  0  0999 V2000
   -1.0861    3.6486    1.2037 C   0  0  0  0  0  0  0  0  0  0  0  0
   -1.0545    2.2903    0.7788 O   0  0  0  0  0  0  0  0  0  0  0  0
   -2.1819    1.4581    0.6934 C   0  0  0  0  0  0  0  0  0  0  0  0
   -3.4756    1.9075    1.0249 C   0  0  0  0  0  0  0  0  0  0  0  0
   -4.5705    1.0435    0.9262 C   0  0  0  0  0  0  0  0  0  0  0  0
   -4.3919   -0.2742    0.4990 C   0  0  0  0  0  0  0  0  0  0  0  0
   -3.1102   -0.7323    0.1659 C   0  0  0  0  0  0  0  0  0  0  0  0
   -2.0060    0.1346    0.2630 C   0  0  0  0  0  0  0  0  0  0  0  0
   -0.7921   -0.2975   -0.0571 O   0  0  0  0  0  0  0  0  0  0  0  0
   -0.5301   -1.5393   -0.4695 C   0  0  0  0  0  0  0  0  0  0  0  0
    0.6943   -1.8512   -0.8176 N   0  0  0  0  0  0  0  0  0  0  0  0
    1.8082   -0.9441   -0.7104 C   0  0  0  0  0  0  0  0  0  0  0  0
    2.0238   -0.1800    0.4509 C   0  0  0  0  0  0  0  0  0  0  0  0
    3.1234    0.6785    0.5397 C   0  0  0  0  0  0  0  0  0  0  0  0
    4.0391    0.7729   -0.5259 C   0  0  0  0  0  0  0  0  0  0  0  0
    3.8368   -0.0105   -1.6680 C   0  0  0  0  0  0  0  0  0  0  0  0
    2.7370   -0.8683   -1.7573 C   0  0  0  0  0  0  0  0  0  0  0  0
    5.1579    1.6209   -0.4932 O   0  0  0  0  0  0  0  0  0  0  0  0
    5.5062    2.4837    0.5874 C   0  0  0  0  0  0  0  0  0  0  0  0
    6.6605    3.1684    0.2601 F   0  0  0  0  0  0  0  0  0  0  0  0
    5.7366    1.7437    1.7332 F   0  0  0  0  0  0  0  0  0  0  0  0
    4.4935    3.3990    0.8124 F   0  0  0  0  0  0  0  0  0  0  0  0
   -1.5953   -2.4779   -0.5643 C   0  0  0  0  0  0  0  0  0  0  0  0
   -2.8919   -2.0446   -0.2535 C   0  0  0  0  0  0  0  0  0  0  0  0
   -1.3945   -3.9019   -0.9208 C   0  0  0  0  0  0  0  0  0  0  0  0
   -0.4577   -4.5593   -0.3930 O   0  0  0  0  0  0  0  0  0  0  0  0
   -2.2837   -4.5563   -1.8273 N   0  0  0  0  0  0  0  0  0  0  0  0
   -1.4679    3.7142    2.2444 H   0  0  0  0  0  0  0  0  0  0  0  0
   -0.0566    4.0605    1.1763 H   0  0  0  0  0  0  0  0  0  0  0  0
   -1.7270    4.2469    0.5222 H   0  0  0  0  0  0  0  0  0  0  0  0
   -3.6455    2.9216    1.3597 H   0  0  0  0  0  0  0  0  0  0  0  0
   -5.5608    1.3968    1.1833 H   0  0  0  0  0  0  0  0  0  0  0  0
   -5.2502   -0.9318    0.4305 H   0  0  0  0  0  0  0  0  0  0  0  0
    0.8972   -2.7604   -1.2880 H   0  0  0  0  0  0  0  0  0  0  0  0
    1.3521   -0.2602    1.2959 H   0  0  0  0  0  0  0  0  0  0  0  0
    3.2534    1.2557    1.4440 H   0  0  0  0  0  0  0  0  0  0  0  0
    4.5374    0.0457   -2.4915 H   0  0  0  0  0  0  0  0  0  0  0  0
    2.5998   -1.4661   -2.6497 H   0  0  0  0  0  0  0  0  0  0  0  0
   -3.7246   -2.7373   -0.3064 H   0  0  0  0  0  0  0  0  0  0  0  0
   -3.0422   -4.0274   -2.3121 H   0  0  0  0  0  0  0  0  0  0  0  0
   -2.1602   -5.5702   -2.0444 H   0  0  0  0  0  0  0  0  0  0  0  0
  1  2  1  0
  2  3  1  0
  3  4  2  0
  4  5  1  0
  5  6  2  0
  6  7  1  0
  7  8  2  0
  8  9  1  0
  9 10  1  0
 10 11  2  0
 11 12  1  0
 12 13  2  0
 13 14  1  0
 14 15  2  0
 15 16  1  0
 16 17  2  0
 15 18  1  0
 18 19  1  0
 19 20  1  0
 19 21  1  0
 19 22  1  0
 10 23  1  0
 23 24  2  0
 23 25  1  0
 25 26  2  0
 25 27  1  0
  8  3  1  0
 24  7  1  0
 17 12  1  0
  1 28  1  0
  1 29  1  0
  1 30  1  0
  4 31  1  0
  5 32  1  0
  6 33  1  0
 11 34  1  0
 13 35  1  0
 14 36  1  0
 16 37  1  0
 17 38  1  0
 24 39  1  0
 27 40  1  0
 27 41  1  0
M  CHG  1  11   1
M  END
$$$$
