
     RDKit          3D

 41 43  0  0  0  0  0  0  0  0999 V2000
   -1.2570   -2.8549    2.7757 C   0  0  0  0  0  0  0  0  0  0  0  0
   -1.1721   -1.7302    1.9071 O   0  0  0  0  0  0  0  0  0  0  0  0
   -2.1974   -0.7889    1.7240 C   0  0  0  0  0  0  0  0  0  0  0  0
   -3.4285   -0.8756    2.4040 C   0  0  0  0  0  0  0  0  0  0  0  0
   -4.4235    0.0829    2.1890 C   0  0  0  0  0  0  0  0  0  0  0  0
   -4.2061    1.1363    1.2980 C   0  0  0  0  0  0  0  0  0  0  0  0
   -2.9859    1.2329    0.6158 C   0  0  0  0  0  0  0  0  0  0  0  0
   -1.9819    0.2705    0.8300 C   0  0  0  0  0  0  0  0  0  0  0  0
   -0.8272    0.3592    0.1805 O   0  0  0  0  0  0  0  0  0  0  0  0
   -0.5378    1.3258   -0.6929 C   0  0  0  0  0  0  0  0  0  0  0  0
    0.6159    1.3000   -1.3147 N   0  0  0  0  0  0  0  0  0  0  0  0
    1.6091    0.2776   -1.1103 C   0  0  0  0  0  0  0  0  0  0  0  0
    1.2710   -1.0876   -1.1181 C   0  0  0  0  0  0  0  0  0  0  0  0
    2.2589   -2.0601   -0.9422 C   0  0  0  0  0  0  0  0  0  0  0  0
    3.5993   -1.6933   -0.7759 C   0  0  0  0  0  0  0  0  0  0  0  0
    3.9427   -0.3276   -0.7962 C   0  0  0  0  0  0  0  0  0  0  0  0
    2.9542    0.6455   -0.9716 C   0  0  0  0  0  0  0  0  0  0  0  0
    4.5487   -2.7130   -0.6002 O   0  0  0  0  0  0  0  0  0  0  0  0
    5.9488   -2.5127   -0.4186 C   0  0  0  0  0  0  0  0  0  0  0  0
    6.5624   -3.7419   -0.2749 F   0  0  0  0  0  0  0  0  0  0  0  0
    6.1795   -1.7632    0.7211 F   0  0  0  0  0  0  0  0  0  0  0  0
    6.4858   -1.8726   -1.5212 F   0  0  0  0  0  0  0  0  0  0  0  0
   -1.4940    2.3527   -0.9312 C   0  0  0  0  0  0  0  0  0  0  0  0
   -2.7296    2.2757   -0.2741 C   0  0  0  0  0  0  0  0  0  0  0  0
   -1.2417    3.5151   -1.8130 C   0  0  0  0  0  0  0  0  0  0  0  0
   -0.1826    4.1865   -1.6878 O   0  0  0  0  0  0  0  0  0  0  0  0
   -2.2176    3.9195   -2.7744 N   0  0  0  0  0  0  0  0  0  0  0  0
   -2.0899   -3.5184    2.4608 H   0  0  0  0  0  0  0  0  0  0  0  0
   -0.3078   -3.4264    2.7218 H   0  0  0  0  0  0  0  0  0  0  0  0
   -1.4105   -2.5181    3.8226 H   0  0  0  0  0  0  0  0  0  0  0  0
   -3.6265   -1.6795    3.0997 H   0  0  0  0  0  0  0  0  0  0  0  0
   -5.3662    0.0088    2.7156 H   0  0  0  0  0  0  0  0  0  0  0  0
   -4.9866    1.8718    1.1437 H   0  0  0  0  0  0  0  0  0  0  0  0
    0.8851    2.0556   -1.9811 H   0  0  0  0  0  0  0  0  0  0  0  0
    0.2481   -1.4024   -1.2793 H   0  0  0  0  0  0  0  0  0  0  0  0
    1.9826   -3.1070   -0.9436 H   0  0  0  0  0  0  0  0  0  0  0  0
    4.9674   -0.0048   -0.6798 H   0  0  0  0  0  0  0  0  0  0  0  0
    3.2342    1.6915   -0.9874 H   0  0  0  0  0  0  0  0  0  0  0  0
   -3.4793    3.0429   -0.4346 H   0  0  0  0  0  0  0  0  0  0  0  0
   -2.0526    4.7620   -3.3687 H   0  0  0  0  0  0  0  0  0  0  0  0
   -3.0911    3.3656   -2.9173 H   0  0  0  0  0  0  0  0  0  0  0  0
  1  2  1  0
  2  3  1  0
  3  4  2  0
  4  5  1  0
  5  6  2  0
  6  7  1  0
  7  8  2  0
  8  9  1  0
  9 10  1  0
 10 11  2  0
 11 12  1  0
 12 13  2  0
 13 14  1  0
 14 15  2  0
 15 16  1  0
 16 17  2  0
 15 18  1  0
 18 19  1  0
 19 20  1  0
 19 21  1  0
 19 22  1  0
 10 23  1  0
 23 24  2  0
 23 25  1  0
 25 26  2  0
 25 27  1  0
  8  3  1  0
 24  7  1  0
 17 12  1  0
  1 28  1  0
  1 29  1  0
  1 30  1  0
  4 31  1  0
  5 32  1  0
  6 33  1  0
 11 34  1  0
 13 35  1  0
 14 36  1  0
 16 37  1  0
 17 38  1  0
 24 39  1  0
 27 40  1  0
 27 41  1  0
M  CHG  1  11   1
M  END
$$$$
