
     RDKit          3D

 41 43  0  0  0  0  0  0  0  0999 V2000
   -0.5255   -3.6963    1.5076 C   0  0  0  0  0  0  0  0  0  0  0  0
   -0.6955   -2.3639    1.0362 O   0  0  0  0  0  0  0  0  0  0  0  0
   -1.9339   -1.7118    0.9269 C   0  0  0  0  0  0  0  0  0  0  0  0
   -3.1460   -2.3335    1.2874 C   0  0  0  0  0  0  0  0  0  0  0  0
   -4.3573   -1.6466    1.1609 C   0  0  0  0  0  0  0  0  0  0  0  0
   -4.3774   -0.3375    0.6747 C   0  0  0  0  0  0  0  0  0  0  0  0
   -3.1784    0.2916    0.3137 C   0  0  0  0  0  0  0  0  0  0  0  0
   -1.9572   -0.3963    0.4405 C   0  0  0  0  0  0  0  0  0  0  0  0
   -0.8204    0.2009    0.1031 O   0  0  0  0  0  0  0  0  0  0  0  0
   -0.7475    1.4453   -0.3732 C   0  0  0  0  0  0  0  0  0  0  0  0
    0.4294    1.9654   -0.6222 N   0  0  0  0  0  0  0  0  0  0  0  0
    1.6662    1.2403   -0.4825 C   0  0  0  0  0  0  0  0  0  0  0  0
    1.8139   -0.0640   -0.9884 C   0  0  0  0  0  0  0  0  0  0  0  0
    3.0304   -0.7403   -0.8588 C   0  0  0  0  0  0  0  0  0  0  0  0
    4.1284   -0.1149   -0.2372 C   0  0  0  0  0  0  0  0  0  0  0  0
    3.9859    1.1934    0.2391 C   0  0  0  0  0  0  0  0  0  0  0  0
    2.7694    1.8695    0.1104 C   0  0  0  0  0  0  0  0  0  0  0  0
    5.3717   -0.7475   -0.0760 O   0  0  0  0  0  0  0  0  0  0  0  0
    5.6822   -2.0735   -0.4989 C   0  0  0  0  0  0  0  0  0  0  0  0
    5.5373   -2.1827   -1.8704 F   0  0  0  0  0  0  0  0  0  0  0  0
    4.8559   -2.9828    0.1369 F   0  0  0  0  0  0  0  0  0  0  0  0
    6.9931   -2.3546   -0.1661 F   0  0  0  0  0  0  0  0  0  0  0  0
   -1.9464    2.1900   -0.5541 C   0  0  0  0  0  0  0  0  0  0  0  0
   -3.1606    1.5936   -0.1864 C   0  0  0  0  0  0  0  0  0  0  0  0
   -1.9802    3.5405   -1.1624 C   0  0  0  0  0  0  0  0  0  0  0  0
   -1.3142    3.7809   -2.2050 O   0  0  0  0  0  0  0  0  0  0  0  0
   -2.7999    4.5687   -0.6039 N   0  0  0  0  0  0  0  0  0  0  0  0
    0.5535   -3.9529    1.4861 H   0  0  0  0  0  0  0  0  0  0  0  0
   -1.0730   -4.4059    0.8520 H   0  0  0  0  0  0  0  0  0  0  0  0
   -0.8906   -3.7810    2.5529 H   0  0  0  0  0  0  0  0  0  0  0  0
   -3.1628   -3.3463    1.6659 H   0  0  0  0  0  0  0  0  0  0  0  0
   -5.2838   -2.1319    1.4397 H   0  0  0  0  0  0  0  0  0  0  0  0
   -5.3245    0.1801    0.5802 H   0  0  0  0  0  0  0  0  0  0  0  0
    0.5248    2.9805   -0.8449 H   0  0  0  0  0  0  0  0  0  0  0  0
    0.9945   -0.5530   -1.4992 H   0  0  0  0  0  0  0  0  0  0  0  0
    3.1054   -1.7438   -1.2527 H   0  0  0  0  0  0  0  0  0  0  0  0
    4.8242    1.6896    0.7117 H   0  0  0  0  0  0  0  0  0  0  0  0
    2.6811    2.8815    0.4852 H   0  0  0  0  0  0  0  0  0  0  0  0
   -4.0933    2.1304   -0.3202 H   0  0  0  0  0  0  0  0  0  0  0  0
   -2.8496    5.5067   -1.0599 H   0  0  0  0  0  0  0  0  0  0  0  0
   -3.3292    4.4120    0.2824 H   0  0  0  0  0  0  0  0  0  0  0  0
  1  2  1  0
  2  3  1  0
  3  4  2  0
  4  5  1  0
  5  6  2  0
  6  7  1  0
  7  8  2  0
  8  9  1  0
  9 10  1  0
 10 11  2  0
 11 12  1  0
 12 13  2  0
 13 14  1  0
 14 15  2  0
 15 16  1  0
 16 17  2  0
 15 18  1  0
 18 19  1  0
 19 20  1  0
 19 21  1  0
 19 22  1  0
 10 23  1  0
 23 24  2  0
 23 25  1  0
 25 26  2  0
 25 27  1  0
  8  3  1  0
 24  7  1  0
 17 12  1  0
  1 28  1  0
  1 29  1  0
  1 30  1  0
  4 31  1  0
  5 32  1  0
  6 33  1  0
 11 34  1  0
 13 35  1  0
 14 36  1  0
 16 37  1  0
 17 38  1  0
 24 39  1  0
 27 40  1  0
 27 41  1  0
M  CHG  1  11   1
M  END
$$$$
