
     RDKit          3D

 86 90  0  0  0  0  0  0  0  0999 V2000
    0.5772    2.7673   -0.2598 O   0  0  0  0  0  0  0  0  0  0  0  0
    0.8800    1.6718   -1.0881 C   0  0  2  0  0  0  0  0  0  0  0  0
   -0.3400    1.3493   -2.0002 C   0  0  1  0  0  0  0  0  0  0  0  0
    0.0663    0.6236   -3.1363 O   0  0  0  0  0  0  0  0  0  0  0  0
   -1.5365    0.6304   -1.2897 C   0  0  1  0  0  0  0  0  0  0  0  0
   -2.7436    0.5047   -2.2603 C   0  0  0  0  0  0  0  0  0  0  0  0
   -3.2186    1.8376   -2.7854 C   0  0  0  0  0  0  0  0  0  0  0  0
   -2.9542    2.2167   -4.1127 C   0  0  0  0  0  0  0  0  0  0  0  0
   -3.3761    3.4628   -4.5863 C   0  0  0  0  0  0  0  0  0  0  0  0
   -4.0624    4.3383   -3.7403 C   0  0  0  0  0  0  0  0  0  0  0  0
   -4.3274    3.9696   -2.4186 C   0  0  0  0  0  0  0  0  0  0  0  0
   -3.9072    2.7248   -1.9406 C   0  0  0  0  0  0  0  0  0  0  0  0
   -1.1809   -0.7053   -0.7330 N   0  0  0  0  0  0  0  0  0  0  0  0
   -2.1484   -1.5222    0.0504 C   0  0  0  0  0  0  0  0  0  0  0  0
   -2.4000   -1.0467    1.5059 C   0  0  0  0  0  0  0  0  0  0  0  0
   -3.1232   -2.1610    2.2964 C   0  0  0  0  0  0  0  0  0  0  0  0
   -3.2875   -1.7986    3.7858 C   0  0  0  0  0  0  0  0  0  0  0  0
   -3.5060   -0.2936    4.0296 C   0  0  0  0  0  0  0  0  0  0  0  0
   -4.1284    0.3885    2.8106 C   0  0  0  0  0  0  0  0  0  0  0  0
   -3.2027    0.2843    1.5839 C   0  0  0  0  0  0  0  0  0  0  0  0
    0.0101   -1.3711   -1.2163 C   0  0  0  0  0  0  0  0  0  0  0  0
   -0.0835   -2.3879   -2.0292 N   0  0  0  0  0  0  0  0  0  0  0  0
   -1.2895   -2.9358   -2.4955 C   0  0  0  0  0  0  0  0  0  0  0  0
   -2.2828   -3.3873   -2.8811 N   0  0  0  0  0  0  0  0  0  0  0  0
    1.3166   -0.7984   -0.9525 N   0  0  0  0  0  0  0  0  0  0  0  0
    2.5075   -1.3806   -1.6069 C   0  0  0  0  0  0  0  0  0  0  0  0
    2.9325   -2.7209   -0.9555 C   0  0  0  0  0  0  0  0  0  0  0  0
    3.4588   -2.5517    0.4859 C   0  0  0  0  0  0  0  0  0  0  0  0
    4.8486   -1.9004    0.5353 C   0  0  0  0  0  0  0  0  0  0  0  0
    5.8523   -2.6751   -0.3250 C   0  0  0  0  0  0  0  0  0  0  0  0
    5.3579   -2.8084   -1.7692 C   0  0  0  0  0  0  0  0  0  0  0  0
    3.9720   -3.4675   -1.8206 C   0  0  0  0  0  0  0  0  0  0  0  0
    1.4507    0.4930   -0.2407 C   0  0  2  0  0  0  0  0  0  0  0  0
    0.8751    0.4127    1.1980 C   0  0  0  0  0  0  0  0  0  0  0  0
    1.6151    1.2860    2.1868 C   0  0  0  0  0  0  0  0  0  0  0  0
    2.9189    0.9529    2.5924 C   0  0  0  0  0  0  0  0  0  0  0  0
    3.6003    1.7553    3.5122 C   0  0  0  0  0  0  0  0  0  0  0  0
    2.9844    2.8921    4.0412 C   0  0  0  0  0  0  0  0  0  0  0  0
    1.6843    3.2261    3.6539 C   0  0  0  0  0  0  0  0  0  0  0  0
    0.9994    2.4265    2.7340 C   0  0  0  0  0  0  0  0  0  0  0  0
    0.6288    3.5859   -0.8197 H   0  0  0  0  0  0  0  0  0  0  0  0
    1.7079    1.9778   -1.7729 H   0  0  0  0  0  0  0  0  0  0  0  0
   -0.7159    2.3395   -2.3479 H   0  0  0  0  0  0  0  0  0  0  0  0
    0.5356    1.2575   -3.7396 H   0  0  0  0  0  0  0  0  0  0  0  0
   -1.8399    1.2953   -0.4628 H   0  0  0  0  0  0  0  0  0  0  0  0
   -3.6102    0.0457   -1.7474 H   0  0  0  0  0  0  0  0  0  0  0  0
   -2.4771   -0.1740   -3.0996 H   0  0  0  0  0  0  0  0  0  0  0  0
   -2.4160    1.5523   -4.7772 H   0  0  0  0  0  0  0  0  0  0  0  0
   -3.1687    3.7509   -5.6087 H   0  0  0  0  0  0  0  0  0  0  0  0
   -4.3874    5.3028   -4.1084 H   0  0  0  0  0  0  0  0  0  0  0  0
   -4.8571    4.6492   -1.7638 H   0  0  0  0  0  0  0  0  0  0  0  0
   -4.1153    2.4531   -0.9133 H   0  0  0  0  0  0  0  0  0  0  0  0
   -1.7554   -2.5605    0.1252 H   0  0  0  0  0  0  0  0  0  0  0  0
   -3.1100   -1.6283   -0.4879 H   0  0  0  0  0  0  0  0  0  0  0  0
   -1.4219   -0.9124    2.0072 H   0  0  0  0  0  0  0  0  0  0  0  0
   -4.1262   -2.3371    1.8473 H   0  0  0  0  0  0  0  0  0  0  0  0
   -2.5568   -3.1159    2.2302 H   0  0  0  0  0  0  0  0  0  0  0  0
   -2.3830   -2.1224    4.3457 H   0  0  0  0  0  0  0  0  0  0  0  0
   -4.1503   -2.3683    4.1949 H   0  0  0  0  0  0  0  0  0  0  0  0
   -4.1649   -0.1511    4.9133 H   0  0  0  0  0  0  0  0  0  0  0  0
   -2.5307    0.1922    4.2553 H   0  0  0  0  0  0  0  0  0  0  0  0
   -4.3216    1.4588    3.0405 H   0  0  0  0  0  0  0  0  0  0  0  0
   -5.1077   -0.0880    2.5841 H   0  0  0  0  0  0  0  0  0  0  0  0
   -2.4866    1.1304    1.6407 H   0  0  0  0  0  0  0  0  0  0  0  0
   -3.8285    0.4204    0.6766 H   0  0  0  0  0  0  0  0  0  0  0  0
    3.3552   -0.6660   -1.6023 H   0  0  0  0  0  0  0  0  0  0  0  0
    2.2799   -1.5430   -2.6831 H   0  0  0  0  0  0  0  0  0  0  0  0
    2.0356   -3.3743   -0.9011 H   0  0  0  0  0  0  0  0  0  0  0  0
    2.7461   -1.9564    1.0874 H   0  0  0  0  0  0  0  0  0  0  0  0
    3.5197   -3.5539    0.9650 H   0  0  0  0  0  0  0  0  0  0  0  0
    5.2061   -1.8896    1.5875 H   0  0  0  0  0  0  0  0  0  0  0  0
    4.7937   -0.8451    0.1936 H   0  0  0  0  0  0  0  0  0  0  0  0
    6.8279   -2.1430   -0.3188 H   0  0  0  0  0  0  0  0  0  0  0  0
    6.0119   -3.6868    0.1090 H   0  0  0  0  0  0  0  0  0  0  0  0
    5.3251   -1.8077   -2.2511 H   0  0  0  0  0  0  0  0  0  0  0  0
    6.0775   -3.4315   -2.3427 H   0  0  0  0  0  0  0  0  0  0  0  0
    4.0605   -4.5149   -1.4559 H   0  0  0  0  0  0  0  0  0  0  0  0
    3.6267   -3.5202   -2.8759 H   0  0  0  0  0  0  0  0  0  0  0  0
    2.5350    0.7119   -0.1182 H   0  0  0  0  0  0  0  0  0  0  0  0
    0.9118   -0.6336    1.5667 H   0  0  0  0  0  0  0  0  0  0  0  0
   -0.1850    0.7169    1.1826 H   0  0  0  0  0  0  0  0  0  0  0  0
    3.4080    0.0740    2.1979 H   0  0  0  0  0  0  0  0  0  0  0  0
    4.6057    1.4943    3.8164 H   0  0  0  0  0  0  0  0  0  0  0  0
    3.5129    3.5120    4.7538 H   0  0  0  0  0  0  0  0  0  0  0  0
    1.2059    4.1041    4.0683 H   0  0  0  0  0  0  0  0  0  0  0  0
   -0.0103    2.6973    2.4509 H   0  0  0  0  0  0  0  0  0  0  0  0
  1  2  1  0
  2  3  1  0
  3  4  1  0
  3  5  1  0
  5  6  1  0
  6  7  1  0
  7  8  2  0
  8  9  1  0
  9 10  2  0
 10 11  1  0
 11 12  2  0
  5 13  1  0
 13 14  1  0
 14 15  1  0
 15 16  1  0
 16 17  1  0
 17 18  1  0
 18 19  1  0
 19 20  1  0
 13 21  1  0
 21 22  2  3
 22 23  1  0
 23 24  3  0
 21 25  1  0
 25 26  1  0
 26 27  1  0
 27 28  1  0
 28 29  1  0
 29 30  1  0
 30 31  1  0
 31 32  1  0
 25 33  1  0
 33 34  1  0
 34 35  1  0
 35 36  2  0
 36 37  1  0
 37 38  2  0
 38 39  1  0
 39 40  2  0
 12  7  1  0
 20 15  1  0
 32 27  1  0
 33  2  1  0
 40 35  1  0
  1 41  1  0
  2 42  1  6
  3 43  1  6
  4 44  1  0
  5 45  1  1
  6 46  1  0
  6 47  1  0
  8 48  1  0
  9 49  1  0
 10 50  1  0
 11 51  1  0
 12 52  1  0
 14 53  1  0
 14 54  1  0
 15 55  1  0
 16 56  1  0
 16 57  1  0
 17 58  1  0
 17 59  1  0
 18 60  1  0
 18 61  1  0
 19 62  1  0
 19 63  1  0
 20 64  1  0
 20 65  1  0
 26 66  1  0
 26 67  1  0
 27 68  1  0
 28 69  1  0
 28 70  1  0
 29 71  1  0
 29 72  1  0
 30 73  1  0
 30 74  1  0
 31 75  1  0
 31 76  1  0
 32 77  1  0
 32 78  1  0
 33 79  1  1
 34 80  1  0
 34 81  1  0
 36 82  1  0
 37 83  1  0
 38 84  1  0
 39 85  1  0
 40 86  1  0
M  END
$$$$
