
     RDKit          3D

 80 83  0  0  0  0  0  0  0  0999 V2000
   -5.6028    3.5621    2.9817 C   0  0  0  0  0  0  0  0  0  0  0  0
   -5.9465    2.2109    2.6927 O   0  0  0  0  0  0  0  0  0  0  0  0
   -5.0253    1.1544    2.6370 C   0  0  0  0  0  0  0  0  0  0  0  0
   -5.5006   -0.1278    2.3387 C   0  0  0  0  0  0  0  0  0  0  0  0
   -4.6223   -1.2127    2.2693 C   0  0  0  0  0  0  0  0  0  0  0  0
   -3.2513   -1.0271    2.4942 C   0  0  0  0  0  0  0  0  0  0  0  0
   -2.1339   -2.3906    2.3800 S   0  0  0  0  0  0  0  0  0  0  0  0
   -1.0690   -2.2168    3.4279 O   0  0  0  0  0  0  0  0  0  0  0  0
   -2.8663   -3.6657    2.6915 O   0  0  0  0  0  0  0  0  0  0  0  0
   -1.3991   -2.5092    0.7857 N   0  0  0  0  0  0  0  0  0  0  0  0
   -2.3908   -2.3025   -0.2946 C   0  0  0  0  0  0  0  0  0  0  0  0
   -3.3279   -3.5174   -0.4691 C   0  0  0  0  0  0  0  0  0  0  0  0
   -2.5314   -4.7979   -0.7555 C   0  0  0  0  0  0  0  0  0  0  0  0
   -4.3302   -3.2533   -1.5992 C   0  0  0  0  0  0  0  0  0  0  0  0
   -0.2634   -1.5667    0.6704 C   0  0  0  0  0  0  0  0  0  0  0  0
    1.0565   -2.3011    0.9824 C   0  0  1  0  0  0  0  0  0  0  0  0
    1.2964   -3.2965    0.0176 O   0  0  0  0  0  0  0  0  0  0  0  0
    2.3053   -1.3861    1.1356 C   0  0  2  0  0  0  0  0  0  0  0  0
    2.2698   -0.5029    2.4054 C   0  0  0  0  0  0  0  0  0  0  0  0
    3.5708    0.2347    2.6036 C   0  0  0  0  0  0  0  0  0  0  0  0
    3.6764    1.5992    2.2830 C   0  0  0  0  0  0  0  0  0  0  0  0
    4.8930    2.2691    2.4444 C   0  0  0  0  0  0  0  0  0  0  0  0
    6.0120    1.5840    2.9251 C   0  0  0  0  0  0  0  0  0  0  0  0
    5.9163    0.2272    3.2454 C   0  0  0  0  0  0  0  0  0  0  0  0
    4.7018   -0.4468    3.0850 C   0  0  0  0  0  0  0  0  0  0  0  0
    2.6060   -0.6243   -0.0894 N   0  0  0  0  0  0  0  0  0  0  0  0
    1.9193    0.5459   -0.5583 C   0  0  0  0  0  0  0  0  0  0  0  0
    1.0417    1.1105    0.1485 O   0  0  0  0  0  0  0  0  0  0  0  0
    2.2423    1.0592   -1.8176 O   0  0  0  0  0  0  0  0  0  0  0  0
    1.5623    2.1695   -2.4073 C   0  0  2  0  0  0  0  0  0  0  0  0
    0.1499    1.8118   -2.8216 C   0  0  0  0  0  0  0  0  0  0  0  0
   -0.2166    2.6345   -3.9018 O   0  0  0  0  0  0  0  0  0  0  0  0
    0.9677    3.0182   -4.5677 C   0  0  2  0  0  0  0  0  0  0  0  0
    0.9737    2.4261   -5.8583 O   0  0  0  0  0  0  0  0  0  0  0  0
    2.1988    2.6988   -6.5114 C   0  0  0  0  0  0  0  0  0  0  0  0
    3.3637    1.9435   -5.8448 C   0  0  0  0  0  0  0  0  0  0  0  0
    3.0096    1.5128   -4.4165 C   0  0  0  0  0  0  0  0  0  0  0  0
    2.1878    2.6111   -3.7121 C   0  0  2  0  0  0  0  0  0  0  0  0
   -2.7710    0.2534    2.8003 C   0  0  0  0  0  0  0  0  0  0  0  0
   -3.6491    1.3389    2.8703 C   0  0  0  0  0  0  0  0  0  0  0  0
   -6.5218    4.1828    2.9586 H   0  0  0  0  0  0  0  0  0  0  0  0
   -4.8940    3.9474    2.2185 H   0  0  0  0  0  0  0  0  0  0  0  0
   -5.1510    3.6330    3.9937 H   0  0  0  0  0  0  0  0  0  0  0  0
   -6.5567   -0.2838    2.1587 H   0  0  0  0  0  0  0  0  0  0  0  0
   -5.0138   -2.1937    2.0363 H   0  0  0  0  0  0  0  0  0  0  0  0
   -1.8699   -2.1655   -1.2694 H   0  0  0  0  0  0  0  0  0  0  0  0
   -2.9787   -1.3763   -0.1185 H   0  0  0  0  0  0  0  0  0  0  0  0
   -3.9187   -3.6727    0.4547 H   0  0  0  0  0  0  0  0  0  0  0  0
   -1.9181   -4.6812   -1.6748 H   0  0  0  0  0  0  0  0  0  0  0  0
   -1.8596   -5.0345    0.0965 H   0  0  0  0  0  0  0  0  0  0  0  0
   -3.2225   -5.6569   -0.8919 H   0  0  0  0  0  0  0  0  0  0  0  0
   -4.9283   -2.3442   -1.3747 H   0  0  0  0  0  0  0  0  0  0  0  0
   -3.8038   -3.1070   -2.5670 H   0  0  0  0  0  0  0  0  0  0  0  0
   -5.0309   -4.1098   -1.6988 H   0  0  0  0  0  0  0  0  0  0  0  0
   -0.3994   -0.6986    1.3445 H   0  0  0  0  0  0  0  0  0  0  0  0
   -0.1836   -1.1463   -0.3548 H   0  0  0  0  0  0  0  0  0  0  0  0
    0.9281   -2.8282    1.9514 H   0  0  0  0  0  0  0  0  0  0  0  0
    1.3928   -2.8478   -0.8626 H   0  0  0  0  0  0  0  0  0  0  0  0
    3.1530   -2.0926    1.2898 H   0  0  0  0  0  0  0  0  0  0  0  0
    1.4228    0.2108    2.3870 H   0  0  0  0  0  0  0  0  0  0  0  0
    2.0972   -1.1521    3.2917 H   0  0  0  0  0  0  0  0  0  0  0  0
    2.8196    2.1458    1.9111 H   0  0  0  0  0  0  0  0  0  0  0  0
    4.9683    3.3200    2.1963 H   0  0  0  0  0  0  0  0  0  0  0  0
    6.9530    2.1042    3.0490 H   0  0  0  0  0  0  0  0  0  0  0  0
    6.7839   -0.3029    3.6166 H   0  0  0  0  0  0  0  0  0  0  0  0
    4.6423   -1.4993    3.3334 H   0  0  0  0  0  0  0  0  0  0  0  0
    3.4007   -0.9650   -0.6763 H   0  0  0  0  0  0  0  0  0  0  0  0
    1.5427    3.0291   -1.6990 H   0  0  0  0  0  0  0  0  0  0  0  0
    0.0917    0.7469   -3.1394 H   0  0  0  0  0  0  0  0  0  0  0  0
   -0.5541    1.9693   -1.9773 H   0  0  0  0  0  0  0  0  0  0  0  0
    0.9446    4.1272   -4.6698 H   0  0  0  0  0  0  0  0  0  0  0  0
    2.1148    2.3754   -7.5705 H   0  0  0  0  0  0  0  0  0  0  0  0
    2.4047    3.7942   -6.5296 H   0  0  0  0  0  0  0  0  0  0  0  0
    3.6197    1.0399   -6.4400 H   0  0  0  0  0  0  0  0  0  0  0  0
    4.2604    2.6007   -5.8239 H   0  0  0  0  0  0  0  0  0  0  0  0
    3.9433    1.3077   -3.8489 H   0  0  0  0  0  0  0  0  0  0  0  0
    2.4181    0.5709   -4.4631 H   0  0  0  0  0  0  0  0  0  0  0  0
    2.8458    3.4924   -3.5365 H   0  0  0  0  0  0  0  0  0  0  0  0
   -1.7175    0.4148    2.9876 H   0  0  0  0  0  0  0  0  0  0  0  0
   -3.2484    2.3152    3.1064 H   0  0  0  0  0  0  0  0  0  0  0  0
  1  2  1  0
  2  3  1  0
  3  4  2  0
  4  5  1  0
  5  6  2  0
  6  7  1  0
  7  8  2  0
  7  9  2  0
  7 10  1  0
 10 11  1  0
 11 12  1  0
 12 13  1  0
 12 14  1  0
 10 15  1  0
 15 16  1  0
 16 17  1  0
 16 18  1  0
 18 19  1  0
 19 20  1  0
 20 21  2  0
 21 22  1  0
 22 23  2  0
 23 24  1  0
 24 25  2  0
 18 26  1  0
 26 27  1  0
 27 28  2  0
 27 29  1  0
 29 30  1  0
 30 31  1  0
 31 32  1  0
 32 33  1  0
 33 34  1  0
 34 35  1  0
 35 36  1  0
 36 37  1  0
 37 38  1  0
  6 39  1  0
 39 40  2  0
 25 20  1  0
 38 30  1  0
 38 33  1  0
 40  3  1  0
  1 41  1  0
  1 42  1  0
  1 43  1  0
  4 44  1  0
  5 45  1  0
 11 46  1  0
 11 47  1  0
 12 48  1  0
 13 49  1  0
 13 50  1  0
 13 51  1  0
 14 52  1  0
 14 53  1  0
 14 54  1  0
 15 55  1  0
 15 56  1  0
 16 57  1  1
 17 58  1  0
 18 59  1  1
 19 60  1  0
 19 61  1  0
 21 62  1  0
 22 63  1  0
 23 64  1  0
 24 65  1  0
 25 66  1  0
 26 67  1  0
 30 68  1  1
 31 69  1  0
 31 70  1  0
 33 71  1  6
 35 72  1  0
 35 73  1  0
 36 74  1  0
 36 75  1  0
 37 76  1  0
 37 77  1  0
 38 78  1  1
 39 79  1  0
 40 80  1  0
M  END
$$$$
