
     RDKit          3D

 86 88  0  0  0  0  0  0  0  0999 V2000
   -3.7508    3.3248   -0.0486 C   0  0  0  0  0  0  0  0  0  0  0  0
   -4.2629    1.8852    0.0855 C   0  0  0  0  0  0  0  0  0  0  0  0
   -5.7916    1.8891    0.2393 C   0  0  0  0  0  0  0  0  0  0  0  0
   -3.5661    1.1837    1.2768 C   0  0  0  0  0  0  0  0  0  0  0  0
   -3.7578   -0.3423    1.2866 C   0  0  0  0  0  0  0  0  0  0  0  0
   -3.2189   -0.9474    0.0509 N   0  0  0  0  0  0  0  0  0  0  0  0
   -1.7648   -1.2048    0.1399 C   0  0  0  0  0  0  0  0  0  0  0  0
   -1.0955   -0.8730   -1.2086 C   0  0  1  0  0  0  0  0  0  0  0  0
   -1.3842    0.4640   -1.5326 O   0  0  0  0  0  0  0  0  0  0  0  0
    0.4416   -1.0776   -1.2133 C   0  0  2  0  0  0  0  0  0  0  0  0
    0.8610   -2.5609   -1.1162 C   0  0  0  0  0  0  0  0  0  0  0  0
    2.3646   -2.6804   -1.0840 C   0  0  0  0  0  0  0  0  0  0  0  0
    3.1205   -2.3925   -2.2309 C   0  0  0  0  0  0  0  0  0  0  0  0
    4.5122   -2.2990   -2.1514 C   0  0  0  0  0  0  0  0  0  0  0  0
    5.1680   -2.4873   -0.9298 C   0  0  0  0  0  0  0  0  0  0  0  0
    6.5522   -2.2608   -0.8786 O   0  0  0  0  0  0  0  0  0  0  0  0
    7.3176   -2.0726    0.3145 C   0  0  0  0  0  0  0  0  0  0  0  0
    6.8787   -0.8218    1.0943 C   0  0  0  0  0  0  0  0  0  0  0  0
    6.8253    0.4359    0.2112 C   0  0  0  0  0  0  0  0  0  0  0  0
    6.3572    1.6700    0.9957 C   0  0  0  0  0  0  0  0  0  0  0  0
    4.9115    1.5606    1.3921 C   0  0  0  0  0  0  0  0  0  0  0  0
    4.6172    1.1815    2.5582 O   0  0  0  0  0  0  0  0  0  0  0  0
    3.8779    1.8578    0.4401 N   0  0  0  0  0  0  0  0  0  0  0  0
    2.4477    1.6829    0.7254 C   0  0  1  0  0  0  0  0  0  0  0  0
    1.7572    3.0592    0.9222 C   0  0  0  0  0  0  0  0  0  0  0  0
    2.4176    3.8543    2.0592 C   0  0  0  0  0  0  0  0  0  0  0  0
    0.2555    2.8972    1.2178 C   0  0  0  0  0  0  0  0  0  0  0  0
    1.8152    0.9173   -0.4105 C   0  0  0  0  0  0  0  0  0  0  0  0
    1.9139    1.3609   -1.5876 O   0  0  0  0  0  0  0  0  0  0  0  0
    1.0818   -0.2900   -0.1507 N   0  0  0  0  0  0  0  0  0  0  0  0
    4.4191   -2.8645    0.1997 C   0  0  0  0  0  0  0  0  0  0  0  0
    3.0265   -2.9405    0.1262 C   0  0  0  0  0  0  0  0  0  0  0  0
   -4.0926   -2.4155   -0.3234 S   0  0  0  0  0  0  0  0  0  0  0  0
   -4.1687   -3.2876    0.9002 O   0  0  0  0  0  0  0  0  0  0  0  0
   -3.4069   -3.1793   -1.4216 O   0  0  0  0  0  0  0  0  0  0  0  0
   -5.7076   -1.9774   -0.8683 C   0  0  0  0  0  0  0  0  0  0  0  0
   -5.8533   -1.1286   -1.9743 C   0  0  0  0  0  0  0  0  0  0  0  0
   -7.1274   -0.7387   -2.3979 C   0  0  0  0  0  0  0  0  0  0  0  0
   -8.2606   -1.1956   -1.7189 C   0  0  0  0  0  0  0  0  0  0  0  0
   -8.1203   -2.0427   -0.6156 C   0  0  0  0  0  0  0  0  0  0  0  0
   -6.8470   -2.4331   -0.1886 C   0  0  0  0  0  0  0  0  0  0  0  0
   -2.6545    3.3272   -0.2277 H   0  0  0  0  0  0  0  0  0  0  0  0
   -4.2372    3.8285   -0.9111 H   0  0  0  0  0  0  0  0  0  0  0  0
   -3.9654    3.9047    0.8749 H   0  0  0  0  0  0  0  0  0  0  0  0
   -4.0094    1.3553   -0.8585 H   0  0  0  0  0  0  0  0  0  0  0  0
   -6.1937    0.8563    0.2313 H   0  0  0  0  0  0  0  0  0  0  0  0
   -6.0898    2.3850    1.1877 H   0  0  0  0  0  0  0  0  0  0  0  0
   -6.2602    2.4315   -0.6095 H   0  0  0  0  0  0  0  0  0  0  0  0
   -2.4775    1.4014    1.2495 H   0  0  0  0  0  0  0  0  0  0  0  0
   -3.9505    1.6008    2.2334 H   0  0  0  0  0  0  0  0  0  0  0  0
   -4.8418   -0.5541    1.4018 H   0  0  0  0  0  0  0  0  0  0  0  0
   -3.2661   -0.7744    2.1875 H   0  0  0  0  0  0  0  0  0  0  0  0
   -1.2980   -0.5680    0.9216 H   0  0  0  0  0  0  0  0  0  0  0  0
   -1.5663   -2.2560    0.4373 H   0  0  0  0  0  0  0  0  0  0  0  0
   -1.5351   -1.5386   -1.9862 H   0  0  0  0  0  0  0  0  0  0  0  0
   -1.2655    0.5583   -2.5139 H   0  0  0  0  0  0  0  0  0  0  0  0
    0.8002   -0.7240   -2.2055 H   0  0  0  0  0  0  0  0  0  0  0  0
    0.4302   -3.0324   -0.2090 H   0  0  0  0  0  0  0  0  0  0  0  0
    0.4683   -3.1171   -1.9952 H   0  0  0  0  0  0  0  0  0  0  0  0
    2.6286   -2.1884   -3.1738 H   0  0  0  0  0  0  0  0  0  0  0  0
    5.0799   -2.0282   -3.0325 H   0  0  0  0  0  0  0  0  0  0  0  0
    7.2435   -2.9724    0.9616 H   0  0  0  0  0  0  0  0  0  0  0  0
    8.3847   -1.9593    0.0284 H   0  0  0  0  0  0  0  0  0  0  0  0
    5.8852   -1.0006    1.5510 H   0  0  0  0  0  0  0  0  0  0  0  0
    7.5976   -0.6556    1.9259 H   0  0  0  0  0  0  0  0  0  0  0  0
    7.8420    0.6358   -0.1916 H   0  0  0  0  0  0  0  0  0  0  0  0
    6.1433    0.2756   -0.6521 H   0  0  0  0  0  0  0  0  0  0  0  0
    6.9909    1.8085    1.8989 H   0  0  0  0  0  0  0  0  0  0  0  0
    6.4876    2.5723    0.3605 H   0  0  0  0  0  0  0  0  0  0  0  0
    4.1573    2.2768   -0.4763 H   0  0  0  0  0  0  0  0  0  0  0  0
    2.3209    1.0923    1.6592 H   0  0  0  0  0  0  0  0  0  0  0  0
    1.8619    3.6538   -0.0129 H   0  0  0  0  0  0  0  0  0  0  0  0
    3.4763    4.0807    1.8135 H   0  0  0  0  0  0  0  0  0  0  0  0
    2.3814    3.2808    3.0103 H   0  0  0  0  0  0  0  0  0  0  0  0
    1.8954    4.8238    2.2060 H   0  0  0  0  0  0  0  0  0  0  0  0
   -0.2157    3.8892    1.3854 H   0  0  0  0  0  0  0  0  0  0  0  0
    0.0989    2.2688    2.1208 H   0  0  0  0  0  0  0  0  0  0  0  0
   -0.2637    2.4249    0.3580 H   0  0  0  0  0  0  0  0  0  0  0  0
    1.0065   -0.6286    0.8350 H   0  0  0  0  0  0  0  0  0  0  0  0
    4.8984   -3.0700    1.1462 H   0  0  0  0  0  0  0  0  0  0  0  0
    2.4631   -3.1663    1.0231 H   0  0  0  0  0  0  0  0  0  0  0  0
   -4.9805   -0.7613   -2.4996 H   0  0  0  0  0  0  0  0  0  0  0  0
   -7.2359   -0.0795   -3.2493 H   0  0  0  0  0  0  0  0  0  0  0  0
   -9.2465   -0.8920   -2.0463 H   0  0  0  0  0  0  0  0  0  0  0  0
   -8.9983   -2.3938   -0.0890 H   0  0  0  0  0  0  0  0  0  0  0  0
   -6.7535   -3.0822    0.6721 H   0  0  0  0  0  0  0  0  0  0  0  0
  1  2  1  0
  2  3  1  0
  2  4  1  0
  4  5  1  0
  5  6  1  0
  6  7  1  0
  7  8  1  0
  8  9  1  0
  8 10  1  0
 10 11  1  0
 11 12  1  0
 12 13  2  0
 13 14  1  0
 14 15  2  0
 15 16  1  0
 16 17  1  0
 17 18  1  0
 18 19  1  0
 19 20  1  0
 20 21  1  0
 21 22  2  0
 21 23  1  0
 23 24  1  0
 24 25  1  0
 25 26  1  0
 25 27  1  0
 24 28  1  0
 28 29  2  0
 28 30  1  0
 15 31  1  0
 31 32  2  0
  6 33  1  0
 33 34  2  0
 33 35  2  0
 33 36  1  0
 36 37  2  0
 37 38  1  0
 38 39  2  0
 39 40  1  0
 40 41  2  0
 30 10  1  0
 32 12  1  0
 41 36  1  0
  1 42  1  0
  1 43  1  0
  1 44  1  0
  2 45  1  0
  3 46  1  0
  3 47  1  0
  3 48  1  0
  4 49  1  0
  4 50  1  0
  5 51  1  0
  5 52  1  0
  7 53  1  0
  7 54  1  0
  8 55  1  6
  9 56  1  0
 10 57  1  6
 11 58  1  0
 11 59  1  0
 13 60  1  0
 14 61  1  0
 17 62  1  0
 17 63  1  0
 18 64  1  0
 18 65  1  0
 19 66  1  0
 19 67  1  0
 20 68  1  0
 20 69  1  0
 23 70  1  0
 24 71  1  1
 25 72  1  0
 26 73  1  0
 26 74  1  0
 26 75  1  0
 27 76  1  0
 27 77  1  0
 27 78  1  0
 30 79  1  0
 31 80  1  0
 32 81  1  0
 37 82  1  0
 38 83  1  0
 39 84  1  0
 40 85  1  0
 41 86  1  0
M  END
$$$$
