
     RDKit          3D

 86 90  0  0  0  0  0  0  0  0999 V2000
   -0.6267   -2.0597    2.2040 O   0  0  0  0  0  0  0  0  0  0  0  0
   -0.1567   -1.8675    0.8908 C   0  0  2  0  0  0  0  0  0  0  0  0
    1.3946   -1.7918    0.8263 C   0  0  1  0  0  0  0  0  0  0  0  0
    1.8275   -1.8955   -0.5057 O   0  0  0  0  0  0  0  0  0  0  0  0
    2.0391   -0.5448    1.4930 C   0  0  1  0  0  0  0  0  0  0  0  0
    3.5906   -0.6202    1.4577 C   0  0  0  0  0  0  0  0  0  0  0  0
    4.1309   -1.8440    2.1581 C   0  0  0  0  0  0  0  0  0  0  0  0
    4.5949   -2.9441    1.4160 C   0  0  0  0  0  0  0  0  0  0  0  0
    5.0706   -4.0847    2.0699 C   0  0  0  0  0  0  0  0  0  0  0  0
    5.0851   -4.1370    3.4663 C   0  0  0  0  0  0  0  0  0  0  0  0
    4.6227   -3.0491    4.2116 C   0  0  0  0  0  0  0  0  0  0  0  0
    4.1456   -1.9066    3.5620 C   0  0  0  0  0  0  0  0  0  0  0  0
    1.4797    0.7213    0.9415 N   0  0  0  0  0  0  0  0  0  0  0  0
    2.2912    1.7900    0.2905 C   0  0  0  0  0  0  0  0  0  0  0  0
    1.9944    2.0338   -1.2079 C   0  0  0  0  0  0  0  0  0  0  0  0
    0.6027    2.6527   -1.4677 C   0  0  0  0  0  0  0  0  0  0  0  0
    0.1257    2.4916   -2.9260 C   0  0  0  0  0  0  0  0  0  0  0  0
    1.2972    2.3911   -3.9099 C   0  0  0  0  0  0  0  0  0  0  0  0
    2.2126    1.1880   -3.5969 C   0  0  0  0  0  0  0  0  0  0  0  0
    2.2442    0.8088   -2.1013 C   0  0  0  0  0  0  0  0  0  0  0  0
    0.2106    1.1034    1.5203 C   0  0  0  0  0  0  0  0  0  0  0  0
    0.1778    1.8415    2.5960 N   0  0  0  0  0  0  0  0  0  0  0  0
    1.3119    2.3466    3.2523 C   0  0  0  0  0  0  0  0  0  0  0  0
    2.2466    2.7616    3.7939 N   0  0  0  0  0  0  0  0  0  0  0  0
   -1.0172    0.4891    1.0494 N   0  0  0  0  0  0  0  0  0  0  0  0
   -2.3011    0.9469    1.6354 C   0  0  0  0  0  0  0  0  0  0  0  0
   -2.6574    2.4044    1.2281 C   0  0  0  0  0  0  0  0  0  0  0  0
   -3.8613    2.9202    2.0435 C   0  0  0  0  0  0  0  0  0  0  0  0
   -5.1807    2.2128    1.6732 C   0  0  0  0  0  0  0  0  0  0  0  0
   -5.2816    1.8308    0.1824 C   0  0  0  0  0  0  0  0  0  0  0  0
   -4.3829    2.7011   -0.6982 C   0  0  0  0  0  0  0  0  0  0  0  0
   -2.8992    2.5868   -0.2974 C   0  0  0  0  0  0  0  0  0  0  0  0
   -0.9048   -0.7041    0.1662 C   0  0  2  0  0  0  0  0  0  0  0  0
   -2.2609   -1.2116   -0.4089 C   0  0  0  0  0  0  0  0  0  0  0  0
   -2.0722   -2.1432   -1.5845 C   0  0  0  0  0  0  0  0  0  0  0  0
   -2.3067   -3.5231   -1.4511 C   0  0  0  0  0  0  0  0  0  0  0  0
   -2.1097   -4.3800   -2.5384 C   0  0  0  0  0  0  0  0  0  0  0  0
   -1.6816   -3.8678   -3.7660 C   0  0  0  0  0  0  0  0  0  0  0  0
   -1.4528   -2.4969   -3.9095 C   0  0  0  0  0  0  0  0  0  0  0  0
   -1.6496   -1.6369   -2.8253 C   0  0  0  0  0  0  0  0  0  0  0  0
   -0.3559   -1.2827    2.7535 H   0  0  0  0  0  0  0  0  0  0  0  0
   -0.3956   -2.8104    0.3577 H   0  0  0  0  0  0  0  0  0  0  0  0
    1.7571   -2.6855    1.3863 H   0  0  0  0  0  0  0  0  0  0  0  0
    1.7208   -2.8446   -0.7777 H   0  0  0  0  0  0  0  0  0  0  0  0
    1.7853   -0.5850    2.5762 H   0  0  0  0  0  0  0  0  0  0  0  0
    3.9519   -0.5983    0.4066 H   0  0  0  0  0  0  0  0  0  0  0  0
    4.0117    0.2643    1.9836 H   0  0  0  0  0  0  0  0  0  0  0  0
    4.5818   -2.9214    0.3333 H   0  0  0  0  0  0  0  0  0  0  0  0
    5.4257   -4.9294    1.4938 H   0  0  0  0  0  0  0  0  0  0  0  0
    5.4529   -5.0212    3.9708 H   0  0  0  0  0  0  0  0  0  0  0  0
    4.6321   -3.0917    5.2930 H   0  0  0  0  0  0  0  0  0  0  0  0
    3.7860   -1.0719    4.1511 H   0  0  0  0  0  0  0  0  0  0  0  0
    3.3760    1.6089    0.3737 H   0  0  0  0  0  0  0  0  0  0  0  0
    2.1379    2.7552    0.8165 H   0  0  0  0  0  0  0  0  0  0  0  0
    2.7387    2.8004   -1.5261 H   0  0  0  0  0  0  0  0  0  0  0  0
   -0.1510    2.1882   -0.8139 H   0  0  0  0  0  0  0  0  0  0  0  0
    0.6371    3.7337   -1.2091 H   0  0  0  0  0  0  0  0  0  0  0  0
   -0.4923    1.5731   -3.0126 H   0  0  0  0  0  0  0  0  0  0  0  0
   -0.5201    3.3529   -3.2020 H   0  0  0  0  0  0  0  0  0  0  0  0
    0.9052    2.2986   -4.9458 H   0  0  0  0  0  0  0  0  0  0  0  0
    1.8894    3.3313   -3.8598 H   0  0  0  0  0  0  0  0  0  0  0  0
    1.8721    0.3049   -4.1809 H   0  0  0  0  0  0  0  0  0  0  0  0
    3.2433    1.4293   -3.9368 H   0  0  0  0  0  0  0  0  0  0  0  0
    1.4546    0.0591   -1.9258 H   0  0  0  0  0  0  0  0  0  0  0  0
    3.2247    0.3446   -1.8595 H   0  0  0  0  0  0  0  0  0  0  0  0
   -3.1411    0.2750    1.3967 H   0  0  0  0  0  0  0  0  0  0  0  0
   -2.2191    0.8906    2.7429 H   0  0  0  0  0  0  0  0  0  0  0  0
   -1.7967    3.0511    1.5020 H   0  0  0  0  0  0  0  0  0  0  0  0
   -3.6693    2.8044    3.1326 H   0  0  0  0  0  0  0  0  0  0  0  0
   -3.9743    4.0108    1.8538 H   0  0  0  0  0  0  0  0  0  0  0  0
   -6.0258    2.8847    1.9387 H   0  0  0  0  0  0  0  0  0  0  0  0
   -5.2913    1.2929    2.2878 H   0  0  0  0  0  0  0  0  0  0  0  0
   -5.0009    0.7647    0.0445 H   0  0  0  0  0  0  0  0  0  0  0  0
   -6.3359    1.9348   -0.1540 H   0  0  0  0  0  0  0  0  0  0  0  0
   -4.7107    3.7605   -0.6109 H   0  0  0  0  0  0  0  0  0  0  0  0
   -4.5026    2.4010   -1.7618 H   0  0  0  0  0  0  0  0  0  0  0  0
   -2.3911    3.5184   -0.6307 H   0  0  0  0  0  0  0  0  0  0  0  0
   -2.4275    1.7713   -0.8759 H   0  0  0  0  0  0  0  0  0  0  0  0
   -0.3123   -0.3952   -0.7135 H   0  0  0  0  0  0  0  0  0  0  0  0
   -2.8775   -0.3677   -0.7699 H   0  0  0  0  0  0  0  0  0  0  0  0
   -2.8407   -1.7245    0.3898 H   0  0  0  0  0  0  0  0  0  0  0  0
   -2.6333   -3.9364   -0.5050 H   0  0  0  0  0  0  0  0  0  0  0  0
   -2.2874   -5.4420   -2.4286 H   0  0  0  0  0  0  0  0  0  0  0  0
   -1.5287   -4.5327   -4.6061 H   0  0  0  0  0  0  0  0  0  0  0  0
   -1.1234   -2.1002   -4.8611 H   0  0  0  0  0  0  0  0  0  0  0  0
   -1.4731   -0.5777   -2.9514 H   0  0  0  0  0  0  0  0  0  0  0  0
  1  2  1  0
  2  3  1  0
  3  4  1  0
  3  5  1  0
  5  6  1  0
  6  7  1  0
  7  8  2  0
  8  9  1  0
  9 10  2  0
 10 11  1  0
 11 12  2  0
  5 13  1  0
 13 14  1  0
 14 15  1  0
 15 16  1  0
 16 17  1  0
 17 18  1  0
 18 19  1  0
 19 20  1  0
 13 21  1  0
 21 22  2  3
 22 23  1  0
 23 24  3  0
 21 25  1  0
 25 26  1  0
 26 27  1  0
 27 28  1  0
 28 29  1  0
 29 30  1  0
 30 31  1  0
 31 32  1  0
 25 33  1  0
 33 34  1  0
 34 35  1  0
 35 36  2  0
 36 37  1  0
 37 38  2  0
 38 39  1  0
 39 40  2  0
 12  7  1  0
 20 15  1  0
 32 27  1  0
 33  2  1  0
 40 35  1  0
  1 41  1  0
  2 42  1  6
  3 43  1  1
  4 44  1  0
  5 45  1  1
  6 46  1  0
  6 47  1  0
  8 48  1  0
  9 49  1  0
 10 50  1  0
 11 51  1  0
 12 52  1  0
 14 53  1  0
 14 54  1  0
 15 55  1  0
 16 56  1  0
 16 57  1  0
 17 58  1  0
 17 59  1  0
 18 60  1  0
 18 61  1  0
 19 62  1  0
 19 63  1  0
 20 64  1  0
 20 65  1  0
 26 66  1  0
 26 67  1  0
 27 68  1  0
 28 69  1  0
 28 70  1  0
 29 71  1  0
 29 72  1  0
 30 73  1  0
 30 74  1  0
 31 75  1  0
 31 76  1  0
 32 77  1  0
 32 78  1  0
 33 79  1  6
 34 80  1  0
 34 81  1  0
 36 82  1  0
 37 83  1  0
 38 84  1  0
 39 85  1  0
 40 86  1  0
M  END
$$$$
