
     RDKit          3D

 80 83  0  0  0  0  0  0  0  0999 V2000
    5.5614    5.6429   -0.9698 C   0  0  0  0  0  0  0  0  0  0  0  0
    4.5573    5.2589   -0.0362 O   0  0  0  0  0  0  0  0  0  0  0  0
    3.7182    4.1454   -0.1895 C   0  0  0  0  0  0  0  0  0  0  0  0
    2.7735    3.8816    0.8093 C   0  0  0  0  0  0  0  0  0  0  0  0
    1.9169    2.7828    0.7034 C   0  0  0  0  0  0  0  0  0  0  0  0
    1.9991    1.9284   -0.4023 C   0  0  0  0  0  0  0  0  0  0  0  0
    0.9165    0.5441   -0.5076 S   0  0  0  0  0  0  0  0  0  0  0  0
    1.1755   -0.2124   -1.7801 O   0  0  0  0  0  0  0  0  0  0  0  0
   -0.4799    1.0959   -0.5441 O   0  0  0  0  0  0  0  0  0  0  0  0
    1.1614   -0.4903    0.8890 N   0  0  0  0  0  0  0  0  0  0  0  0
    2.2743   -1.4525    0.7622 C   0  0  0  0  0  0  0  0  0  0  0  0
    3.6501   -0.7669    0.8857 C   0  0  0  0  0  0  0  0  0  0  0  0
    4.7718   -1.7966    0.7026 C   0  0  0  0  0  0  0  0  0  0  0  0
    3.8022   -0.0576    2.2386 C   0  0  0  0  0  0  0  0  0  0  0  0
   -0.0770   -0.9992    1.5267 C   0  0  0  0  0  0  0  0  0  0  0  0
   -0.5763   -2.4299    1.1233 C   0  0  1  0  0  0  0  0  0  0  0  0
   -1.4148   -2.8943    2.1541 O   0  0  0  0  0  0  0  0  0  0  0  0
   -1.3713   -2.5641   -0.2197 C   0  0  2  0  0  0  0  0  0  0  0  0
   -0.5183   -3.1426   -1.3746 C   0  0  0  0  0  0  0  0  0  0  0  0
   -0.2007   -4.6067   -1.1773 C   0  0  0  0  0  0  0  0  0  0  0  0
    1.0911   -5.0189   -0.8054 C   0  0  0  0  0  0  0  0  0  0  0  0
    1.3710   -6.3753   -0.6136 C   0  0  0  0  0  0  0  0  0  0  0  0
    0.3673   -7.3304   -0.7939 C   0  0  0  0  0  0  0  0  0  0  0  0
   -0.9181   -6.9310   -1.1683 C   0  0  0  0  0  0  0  0  0  0  0  0
   -1.2027   -5.5756   -1.3608 C   0  0  0  0  0  0  0  0  0  0  0  0
   -2.0090   -1.3099   -0.6351 N   0  0  0  0  0  0  0  0  0  0  0  0
   -3.1657   -0.7707    0.0165 C   0  0  0  0  0  0  0  0  0  0  0  0
   -3.6486   -1.3381    1.0346 O   0  0  0  0  0  0  0  0  0  0  0  0
   -3.7488    0.3962   -0.4892 O   0  0  0  0  0  0  0  0  0  0  0  0
   -4.9099    1.0047    0.0798 C   0  0  2  0  0  0  0  0  0  0  0  0
   -5.5440    1.9693   -0.9025 C   0  0  0  0  0  0  0  0  0  0  0  0
   -6.1430    3.0278   -0.1932 O   0  0  0  0  0  0  0  0  0  0  0  0
   -5.5750    3.0590    1.1017 C   0  0  2  0  0  0  0  0  0  0  0  0
   -4.9485    4.3085    1.3532 O   0  0  0  0  0  0  0  0  0  0  0  0
   -3.8824    4.5452    0.4477 C   0  0  0  0  0  0  0  0  0  0  0  0
   -2.8026    3.4441    0.4863 C   0  0  0  0  0  0  0  0  0  0  0  0
   -3.1661    2.3366    1.4751 C   0  0  0  0  0  0  0  0  0  0  0  0
   -4.6268    1.8658    1.3009 C   0  0  2  0  0  0  0  0  0  0  0  0
    2.9355    2.1915   -1.4117 C   0  0  0  0  0  0  0  0  0  0  0  0
    3.7932    3.2907   -1.3065 C   0  0  0  0  0  0  0  0  0  0  0  0
    5.1006    5.8697   -1.9544 H   0  0  0  0  0  0  0  0  0  0  0  0
    6.3131    4.8325   -1.0769 H   0  0  0  0  0  0  0  0  0  0  0  0
    6.0723    6.5546   -0.5983 H   0  0  0  0  0  0  0  0  0  0  0  0
    2.7038    4.5316    1.6722 H   0  0  0  0  0  0  0  0  0  0  0  0
    1.1932    2.5932    1.4865 H   0  0  0  0  0  0  0  0  0  0  0  0
    2.2210   -2.2095    1.5755 H   0  0  0  0  0  0  0  0  0  0  0  0
    2.2118   -1.9839   -0.2076 H   0  0  0  0  0  0  0  0  0  0  0  0
    3.7638   -0.0189    0.0771 H   0  0  0  0  0  0  0  0  0  0  0  0
    4.7222   -2.5779    1.4914 H   0  0  0  0  0  0  0  0  0  0  0  0
    5.7630   -1.2973    0.7544 H   0  0  0  0  0  0  0  0  0  0  0  0
    4.6845   -2.2853   -0.2914 H   0  0  0  0  0  0  0  0  0  0  0  0
    3.0160    0.7146    2.3660 H   0  0  0  0  0  0  0  0  0  0  0  0
    4.7893    0.4488    2.2955 H   0  0  0  0  0  0  0  0  0  0  0  0
    3.7232   -0.7860    3.0739 H   0  0  0  0  0  0  0  0  0  0  0  0
    0.1371   -1.0273    2.6171 H   0  0  0  0  0  0  0  0  0  0  0  0
   -0.8951   -0.2612    1.4507 H   0  0  0  0  0  0  0  0  0  0  0  0
    0.2882   -3.1227    1.0757 H   0  0  0  0  0  0  0  0  0  0  0  0
   -0.8325   -3.1950    2.9009 H   0  0  0  0  0  0  0  0  0  0  0  0
   -2.1927   -3.3001   -0.0619 H   0  0  0  0  0  0  0  0  0  0  0  0
    0.4113   -2.5584   -1.4967 H   0  0  0  0  0  0  0  0  0  0  0  0
   -1.0789   -3.0430   -2.3301 H   0  0  0  0  0  0  0  0  0  0  0  0
    1.8817   -4.2949   -0.6635 H   0  0  0  0  0  0  0  0  0  0  0  0
    2.3669   -6.6860   -0.3253 H   0  0  0  0  0  0  0  0  0  0  0  0
    0.5860   -8.3799   -0.6450 H   0  0  0  0  0  0  0  0  0  0  0  0
   -1.6946   -7.6717   -1.3096 H   0  0  0  0  0  0  0  0  0  0  0  0
   -2.2031   -5.2803   -1.6520 H   0  0  0  0  0  0  0  0  0  0  0  0
   -1.7141   -0.8590   -1.5303 H   0  0  0  0  0  0  0  0  0  0  0  0
   -5.6636    0.2248    0.3361 H   0  0  0  0  0  0  0  0  0  0  0  0
   -6.3138    1.4481   -1.5105 H   0  0  0  0  0  0  0  0  0  0  0  0
   -4.7823    2.3848   -1.5971 H   0  0  0  0  0  0  0  0  0  0  0  0
   -6.4098    2.9570    1.8283 H   0  0  0  0  0  0  0  0  0  0  0  0
   -3.4113    5.5123    0.7237 H   0  0  0  0  0  0  0  0  0  0  0  0
   -4.2692    4.6783   -0.5868 H   0  0  0  0  0  0  0  0  0  0  0  0
   -1.8227    3.8816    0.7779 H   0  0  0  0  0  0  0  0  0  0  0  0
   -2.6777    3.0081   -0.5278 H   0  0  0  0  0  0  0  0  0  0  0  0
   -3.0496    2.7393    2.5056 H   0  0  0  0  0  0  0  0  0  0  0  0
   -2.4539    1.4943    1.3882 H   0  0  0  0  0  0  0  0  0  0  0  0
   -4.9118    1.2977    2.2153 H   0  0  0  0  0  0  0  0  0  0  0  0
    3.0107    1.5443   -2.2756 H   0  0  0  0  0  0  0  0  0  0  0  0
    4.5100    3.4662   -2.0969 H   0  0  0  0  0  0  0  0  0  0  0  0
  1  2  1  0
  2  3  1  0
  3  4  2  0
  4  5  1  0
  5  6  2  0
  6  7  1  0
  7  8  2  0
  7  9  2  0
  7 10  1  0
 10 11  1  0
 11 12  1  0
 12 13  1  0
 12 14  1  0
 10 15  1  0
 15 16  1  0
 16 17  1  0
 16 18  1  0
 18 19  1  0
 19 20  1  0
 20 21  2  0
 21 22  1  0
 22 23  2  0
 23 24  1  0
 24 25  2  0
 18 26  1  0
 26 27  1  0
 27 28  2  0
 27 29  1  0
 29 30  1  0
 30 31  1  0
 31 32  1  0
 32 33  1  0
 33 34  1  0
 34 35  1  0
 35 36  1  0
 36 37  1  0
 37 38  1  0
  6 39  1  0
 39 40  2  0
 25 20  1  0
 38 30  1  0
 38 33  1  0
 40  3  1  0
  1 41  1  0
  1 42  1  0
  1 43  1  0
  4 44  1  0
  5 45  1  0
 11 46  1  0
 11 47  1  0
 12 48  1  0
 13 49  1  0
 13 50  1  0
 13 51  1  0
 14 52  1  0
 14 53  1  0
 14 54  1  0
 15 55  1  0
 15 56  1  0
 16 57  1  6
 17 58  1  0
 18 59  1  1
 19 60  1  0
 19 61  1  0
 21 62  1  0
 22 63  1  0
 23 64  1  0
 24 65  1  0
 25 66  1  0
 26 67  1  0
 30 68  1  1
 31 69  1  0
 31 70  1  0
 33 71  1  1
 35 72  1  0
 35 73  1  0
 36 74  1  0
 36 75  1  0
 37 76  1  0
 37 77  1  0
 38 78  1  1
 39 79  1  0
 40 80  1  0
M  END
$$$$
