
     RDKit          3D

 86 88  0  0  0  0  0  0  0  0999 V2000
   -5.1148   -2.1612   -1.9259 C   0  0  0  0  0  0  0  0  0  0  0  0
   -3.8180   -2.3304   -1.1199 C   0  0  0  0  0  0  0  0  0  0  0  0
   -3.7075   -3.7726   -0.6084 C   0  0  0  0  0  0  0  0  0  0  0  0
   -3.7450   -1.3413    0.0639 C   0  0  0  0  0  0  0  0  0  0  0  0
   -3.7017    0.1361   -0.3961 C   0  0  0  0  0  0  0  0  0  0  0  0
   -3.2277    1.0846    0.6372 N   0  0  0  0  0  0  0  0  0  0  0  0
   -1.7656    1.0475    0.8431 C   0  0  0  0  0  0  0  0  0  0  0  0
   -1.0961    2.1634    0.0183 C   0  0  1  0  0  0  0  0  0  0  0  0
   -1.4371    3.4112    0.5687 O   0  0  0  0  0  0  0  0  0  0  0  0
    0.4412    2.0025    0.0107 C   0  0  2  0  0  0  0  0  0  0  0  0
    1.1290    3.1851   -0.7027 C   0  0  0  0  0  0  0  0  0  0  0  0
    2.6201    2.9745   -0.7985 C   0  0  0  0  0  0  0  0  0  0  0  0
    3.2003    2.5342   -1.9975 C   0  0  0  0  0  0  0  0  0  0  0  0
    4.5735    2.2871   -2.0673 C   0  0  0  0  0  0  0  0  0  0  0  0
    5.3886    2.4523   -0.9412 C   0  0  0  0  0  0  0  0  0  0  0  0
    6.7594    2.1663   -1.0778 O   0  0  0  0  0  0  0  0  0  0  0  0
    7.7015    1.9806   -0.0178 C   0  0  0  0  0  0  0  0  0  0  0  0
    7.8689    0.4963    0.3422 C   0  0  0  0  0  0  0  0  0  0  0  0
    6.5640   -0.1835    0.7972 C   0  0  0  0  0  0  0  0  0  0  0  0
    5.8643   -0.9234   -0.3567 C   0  0  0  0  0  0  0  0  0  0  0  0
    4.4495   -1.2983   -0.0143 C   0  0  0  0  0  0  0  0  0  0  0  0
    4.1626   -1.6477    1.1625 O   0  0  0  0  0  0  0  0  0  0  0  0
    3.4500   -1.3217   -1.0485 N   0  0  0  0  0  0  0  0  0  0  0  0
    2.0077   -1.4882   -0.8208 C   0  0  1  0  0  0  0  0  0  0  0  0
    1.6584   -2.8687   -0.1950 C   0  0  0  0  0  0  0  0  0  0  0  0
    2.2739   -4.0169   -1.0099 C   0  0  0  0  0  0  0  0  0  0  0  0
    0.1354   -3.0643   -0.1064 C   0  0  0  0  0  0  0  0  0  0  0  0
    1.4852   -0.3269   -0.0108 C   0  0  0  0  0  0  0  0  0  0  0  0
    1.6760   -0.2924    1.2355 O   0  0  0  0  0  0  0  0  0  0  0  0
    0.8019    0.7514   -0.6671 N   0  0  0  0  0  0  0  0  0  0  0  0
    4.8052    2.8969    0.2630 C   0  0  0  0  0  0  0  0  0  0  0  0
    3.4322    3.1514    0.3306 C   0  0  0  0  0  0  0  0  0  0  0  0
   -4.1133    0.9822    2.1429 S   0  0  0  0  0  0  0  0  0  0  0  0
   -3.8196    2.1995    2.9741 O   0  0  0  0  0  0  0  0  0  0  0  0
   -3.6810   -0.2373    2.9102 O   0  0  0  0  0  0  0  0  0  0  0  0
   -5.8475    0.9286    1.8319 C   0  0  0  0  0  0  0  0  0  0  0  0
   -6.4509    1.9619    1.1016 C   0  0  0  0  0  0  0  0  0  0  0  0
   -7.8225    1.9247    0.8328 C   0  0  0  0  0  0  0  0  0  0  0  0
   -8.5974    0.8567    1.2941 C   0  0  0  0  0  0  0  0  0  0  0  0
   -8.0014   -0.1743    2.0260 C   0  0  0  0  0  0  0  0  0  0  0  0
   -6.6298   -0.1395    2.2968 C   0  0  0  0  0  0  0  0  0  0  0  0
   -5.1729   -2.9292   -2.7265 H   0  0  0  0  0  0  0  0  0  0  0  0
   -5.1421   -1.1667   -2.4176 H   0  0  0  0  0  0  0  0  0  0  0  0
   -6.0033   -2.2642   -1.2663 H   0  0  0  0  0  0  0  0  0  0  0  0
   -2.9546   -2.1460   -1.7971 H   0  0  0  0  0  0  0  0  0  0  0  0
   -2.7588   -3.9124   -0.0488 H   0  0  0  0  0  0  0  0  0  0  0  0
   -4.5580   -4.0158    0.0645 H   0  0  0  0  0  0  0  0  0  0  0  0
   -3.7092   -4.4843   -1.4614 H   0  0  0  0  0  0  0  0  0  0  0  0
   -2.8416   -1.5778    0.6625 H   0  0  0  0  0  0  0  0  0  0  0  0
   -4.6263   -1.5013    0.7201 H   0  0  0  0  0  0  0  0  0  0  0  0
   -4.7178    0.4452   -0.7187 H   0  0  0  0  0  0  0  0  0  0  0  0
   -3.0536    0.2271   -1.2956 H   0  0  0  0  0  0  0  0  0  0  0  0
   -1.4993    1.2013    1.9126 H   0  0  0  0  0  0  0  0  0  0  0  0
   -1.3467    0.0614    0.5561 H   0  0  0  0  0  0  0  0  0  0  0  0
   -1.4535    2.1054   -1.0373 H   0  0  0  0  0  0  0  0  0  0  0  0
   -2.3475    3.6337    0.2407 H   0  0  0  0  0  0  0  0  0  0  0  0
    0.7943    1.9927    1.0661 H   0  0  0  0  0  0  0  0  0  0  0  0
    0.9369    4.1265   -0.1432 H   0  0  0  0  0  0  0  0  0  0  0  0
    0.6945    3.3152   -1.7187 H   0  0  0  0  0  0  0  0  0  0  0  0
    2.5888    2.3729   -2.8766 H   0  0  0  0  0  0  0  0  0  0  0  0
    5.0057    1.9445   -2.9990 H   0  0  0  0  0  0  0  0  0  0  0  0
    8.6859    2.3500   -0.3750 H   0  0  0  0  0  0  0  0  0  0  0  0
    7.4600    2.5824    0.8790 H   0  0  0  0  0  0  0  0  0  0  0  0
    8.6053    0.4355    1.1732 H   0  0  0  0  0  0  0  0  0  0  0  0
    8.3147   -0.0477   -0.5196 H   0  0  0  0  0  0  0  0  0  0  0  0
    6.8083   -0.9296    1.5852 H   0  0  0  0  0  0  0  0  0  0  0  0
    5.8825    0.5595    1.2623 H   0  0  0  0  0  0  0  0  0  0  0  0
    5.8591   -0.2894   -1.2668 H   0  0  0  0  0  0  0  0  0  0  0  0
    6.4294   -1.8490   -0.5981 H   0  0  0  0  0  0  0  0  0  0  0  0
    3.7596   -1.1430   -2.0309 H   0  0  0  0  0  0  0  0  0  0  0  0
    1.5097   -1.4551   -1.8161 H   0  0  0  0  0  0  0  0  0  0  0  0
    2.0610   -2.9307    0.8380 H   0  0  0  0  0  0  0  0  0  0  0  0
    1.9174   -3.9852   -2.0619 H   0  0  0  0  0  0  0  0  0  0  0  0
    3.3821   -3.9504   -1.0031 H   0  0  0  0  0  0  0  0  0  0  0  0
    1.9949   -4.9968   -0.5668 H   0  0  0  0  0  0  0  0  0  0  0  0
   -0.1007   -4.0605    0.3249 H   0  0  0  0  0  0  0  0  0  0  0  0
   -0.3311   -2.9910   -1.1124 H   0  0  0  0  0  0  0  0  0  0  0  0
   -0.3191   -2.2981    0.5555 H   0  0  0  0  0  0  0  0  0  0  0  0
    0.5720    0.6593   -1.6828 H   0  0  0  0  0  0  0  0  0  0  0  0
    5.3881    3.0521    1.1568 H   0  0  0  0  0  0  0  0  0  0  0  0
    2.9989    3.4790    1.2677 H   0  0  0  0  0  0  0  0  0  0  0  0
   -5.8574    2.7905    0.7359 H   0  0  0  0  0  0  0  0  0  0  0  0
   -8.2843    2.7226    0.2657 H   0  0  0  0  0  0  0  0  0  0  0  0
   -9.6589    0.8282    1.0847 H   0  0  0  0  0  0  0  0  0  0  0  0
   -8.6020   -1.0010    2.3828 H   0  0  0  0  0  0  0  0  0  0  0  0
   -6.1823   -0.9464    2.8621 H   0  0  0  0  0  0  0  0  0  0  0  0
  1  2  1  0
  2  3  1  0
  2  4  1  0
  4  5  1  0
  5  6  1  0
  6  7  1  0
  7  8  1  0
  8  9  1  0
  8 10  1  0
 10 11  1  0
 11 12  1  0
 12 13  2  0
 13 14  1  0
 14 15  2  0
 15 16  1  0
 16 17  1  0
 17 18  1  0
 18 19  1  0
 19 20  1  0
 20 21  1  0
 21 22  2  0
 21 23  1  0
 23 24  1  0
 24 25  1  0
 25 26  1  0
 25 27  1  0
 24 28  1  0
 28 29  2  0
 28 30  1  0
 15 31  1  0
 31 32  2  0
  6 33  1  0
 33 34  2  0
 33 35  2  0
 33 36  1  0
 36 37  2  0
 37 38  1  0
 38 39  2  0
 39 40  1  0
 40 41  2  0
 30 10  1  0
 32 12  1  0
 41 36  1  0
  1 42  1  0
  1 43  1  0
  1 44  1  0
  2 45  1  0
  3 46  1  0
  3 47  1  0
  3 48  1  0
  4 49  1  0
  4 50  1  0
  5 51  1  0
  5 52  1  0
  7 53  1  0
  7 54  1  0
  8 55  1  6
  9 56  1  0
 10 57  1  1
 11 58  1  0
 11 59  1  0
 13 60  1  0
 14 61  1  0
 17 62  1  0
 17 63  1  0
 18 64  1  0
 18 65  1  0
 19 66  1  0
 19 67  1  0
 20 68  1  0
 20 69  1  0
 23 70  1  0
 24 71  1  6
 25 72  1  0
 26 73  1  0
 26 74  1  0
 26 75  1  0
 27 76  1  0
 27 77  1  0
 27 78  1  0
 30 79  1  0
 31 80  1  0
 32 81  1  0
 37 82  1  0
 38 83  1  0
 39 84  1  0
 40 85  1  0
 41 86  1  0
M  END
$$$$
