
     RDKit          3D

 64 68  0  0  0  0  0  0  0  0999 V2000
   -5.8532   -1.0878    1.9827 C   0  0  0  0  0  0  0  0  0  0  0  0
   -4.3875   -1.1874    1.5575 C   0  0  0  0  0  0  0  0  0  0  0  0
   -4.2291   -1.2557    0.0188 C   0  0  0  0  0  0  0  0  0  0  0  0
   -2.8354   -1.6489   -0.4563 C   0  0  0  0  0  0  0  0  0  0  0  0
   -2.6910   -2.1595   -1.7584 C   0  0  0  0  0  0  0  0  0  0  0  0
   -1.4318   -2.4999   -2.2546 C   0  0  0  0  0  0  0  0  0  0  0  0
   -0.2967   -2.3392   -1.4596 C   0  0  0  0  0  0  0  0  0  0  0  0
   -0.4138   -1.8440   -0.1504 C   0  0  0  0  0  0  0  0  0  0  0  0
    0.7438   -1.6356    0.6768 N   0  0  0  0  0  0  0  0  0  0  0  0
    1.9041   -2.4821    0.6664 C   0  0  0  0  0  0  0  0  0  0  0  0
    1.8819   -3.5972    0.0784 O   0  0  0  0  0  0  0  0  0  0  0  0
    3.1571   -2.0425    1.3621 C   0  0  0  0  0  0  0  0  0  0  0  0
    3.9257   -1.0412    0.4988 C   0  0  0  0  0  0  0  0  0  0  0  0
    5.1382   -0.6043    1.2015 N   0  0  0  0  0  0  0  0  0  0  0  0
    5.8157    0.4810    0.4740 C   0  0  0  0  0  0  0  0  0  0  0  0
    6.5991   -0.0269   -0.7188 C   0  0  0  0  0  0  0  0  0  0  0  0
    7.9035    0.2035   -0.5914 C   0  0  0  0  0  0  0  0  0  0  0  0
    8.1253    0.8775    0.6702 C   0  0  0  0  0  0  0  0  0  0  0  0
    9.3195    1.3259    1.2332 C   0  0  0  0  0  0  0  0  0  0  0  0
    9.2645    1.9680    2.4817 C   0  0  0  0  0  0  0  0  0  0  0  0
    8.0281    2.1490    3.1344 C   0  0  0  0  0  0  0  0  0  0  0  0
    6.8395    1.6882    2.5428 C   0  0  0  0  0  0  0  0  0  0  0  0
    6.9187    1.0492    1.3039 C   0  0  0  0  0  0  0  0  0  0  0  0
   -1.6795   -1.4818    0.3359 C   0  0  0  0  0  0  0  0  0  0  0  0
   -4.6832    0.0383   -0.6570 C   0  0  0  0  0  0  0  0  0  0  0  0
   -3.9630    1.2443   -0.4996 C   0  0  0  0  0  0  0  0  0  0  0  0
   -2.8082    1.2859    0.2748 O   0  0  0  0  0  0  0  0  0  0  0  0
   -4.3748    2.3623   -1.0892 O   0  0  0  0  0  0  0  0  0  0  0  0
   -5.4633    2.4233   -1.8448 C   0  0  0  0  0  0  0  0  0  0  0  0
   -5.8302    3.6396   -2.4318 C   0  0  0  0  0  0  0  0  0  0  0  0
   -6.9753    3.7174   -3.2288 C   0  0  0  0  0  0  0  0  0  0  0  0
   -7.7591    2.5806   -3.4429 C   0  0  0  0  0  0  0  0  0  0  0  0
   -7.4018    1.3602   -2.8614 C   0  0  0  0  0  0  0  0  0  0  0  0
   -6.2495    1.2713   -2.0570 C   0  0  0  0  0  0  0  0  0  0  0  0
   -5.8499    0.0684   -1.4516 C   0  0  0  0  0  0  0  0  0  0  0  0
   -6.5355   -0.9783   -1.6187 O   0  0  0  0  0  0  0  0  0  0  0  0
   -5.9185   -1.0911    3.0912 H   0  0  0  0  0  0  0  0  0  0  0  0
   -6.4306   -1.9526    1.5922 H   0  0  0  0  0  0  0  0  0  0  0  0
   -6.3051   -0.1452    1.6081 H   0  0  0  0  0  0  0  0  0  0  0  0
   -3.9623   -2.1098    2.0103 H   0  0  0  0  0  0  0  0  0  0  0  0
   -3.8426   -0.3163    1.9775 H   0  0  0  0  0  0  0  0  0  0  0  0
   -4.8855   -2.0949   -0.3011 H   0  0  0  0  0  0  0  0  0  0  0  0
   -3.5581   -2.2832   -2.3959 H   0  0  0  0  0  0  0  0  0  0  0  0
   -1.3343   -2.8782   -3.2640 H   0  0  0  0  0  0  0  0  0  0  0  0
    0.6721   -2.5732   -1.8801 H   0  0  0  0  0  0  0  0  0  0  0  0
    0.7115   -0.8636    1.3809 H   0  0  0  0  0  0  0  0  0  0  0  0
    2.8942   -1.5736    2.3349 H   0  0  0  0  0  0  0  0  0  0  0  0
    3.7987   -2.9268    1.5704 H   0  0  0  0  0  0  0  0  0  0  0  0
    4.1931   -1.5200   -0.4700 H   0  0  0  0  0  0  0  0  0  0  0  0
    3.2671   -0.1662    0.2977 H   0  0  0  0  0  0  0  0  0  0  0  0
    5.7881   -1.4222    1.2917 H   0  0  0  0  0  0  0  0  0  0  0  0
    5.1112    1.2897    0.1782 H   0  0  0  0  0  0  0  0  0  0  0  0
    6.1611   -0.5098   -1.5823 H   0  0  0  0  0  0  0  0  0  0  0  0
    8.6595   -0.0646   -1.3175 H   0  0  0  0  0  0  0  0  0  0  0  0
   10.2634    1.1851    0.7227 H   0  0  0  0  0  0  0  0  0  0  0  0
   10.1752    2.3265    2.9434 H   0  0  0  0  0  0  0  0  0  0  0  0
    7.9937    2.6460    4.0951 H   0  0  0  0  0  0  0  0  0  0  0  0
    5.8861    1.8245    3.0365 H   0  0  0  0  0  0  0  0  0  0  0  0
   -1.7476   -1.0737    1.3346 H   0  0  0  0  0  0  0  0  0  0  0  0
   -2.2898    2.1484    0.3873 H   0  0  0  0  0  0  0  0  0  0  0  0
   -5.2280    4.5248   -2.2701 H   0  0  0  0  0  0  0  0  0  0  0  0
   -7.2558    4.6599   -3.6810 H   0  0  0  0  0  0  0  0  0  0  0  0
   -8.6454    2.6452   -4.0609 H   0  0  0  0  0  0  0  0  0  0  0  0
   -8.0249    0.4930   -3.0419 H   0  0  0  0  0  0  0  0  0  0  0  0
  1  2  1  0
  2  3  1  0
  3  4  1  0
  4  5  2  0
  5  6  1  0
  6  7  2  0
  7  8  1  0
  8  9  1  0
  9 10  1  0
 10 11  2  0
 10 12  1  0
 12 13  1  0
 13 14  1  0
 14 15  1  0
 15 16  1  0
 16 17  2  0
 17 18  1  0
 18 19  2  0
 19 20  1  0
 20 21  2  0
 21 22  1  0
 22 23  2  0
  8 24  2  0
  3 25  1  0
 25 26  2  0
 26 27  1  0
 26 28  1  0
 28 29  1  0
 29 30  2  0
 30 31  1  0
 31 32  2  0
 32 33  1  0
 33 34  2  0
 34 35  1  0
 35 36  2  0
 23 15  1  0
 23 18  1  0
 24  4  1  0
 34 29  1  0
 35 25  1  0
  1 37  1  0
  1 38  1  0
  1 39  1  0
  2 40  1  0
  2 41  1  0
  3 42  1  0
  5 43  1  0
  6 44  1  0
  7 45  1  0
  9 46  1  0
 12 47  1  0
 12 48  1  0
 13 49  1  0
 13 50  1  0
 14 51  1  0
 15 52  1  0
 16 53  1  0
 17 54  1  0
 19 55  1  0
 20 56  1  0
 21 57  1  0
 22 58  1  0
 24 59  1  0
 27 60  1  0
 30 61  1  0
 31 62  1  0
 32 63  1  0
 33 64  1  0
M  END
$$$$
