
     RDKit          3D

 84 87  0  0  0  0  0  0  0  0999 V2000
   -5.6762    3.0024   -0.0107 C   0  0  0  0  0  0  0  0  0  0  0  0
   -6.4009    1.6666   -0.2450 C   0  0  0  0  0  0  0  0  0  0  0  0
   -6.9460    1.6190   -1.6824 C   0  0  0  0  0  0  0  0  0  0  0  0
   -5.5490    0.3892    0.0554 C   0  0  0  0  0  0  0  0  0  0  0  0
   -4.4515    0.2424   -0.9124 N   0  0  0  0  0  0  0  0  0  0  0  0
   -4.2098   -0.9674   -1.6479 C   0  0  0  0  0  0  0  0  0  0  0  0
   -4.9549   -1.9726   -1.4907 O   0  0  0  0  0  0  0  0  0  0  0  0
   -3.0756   -1.0398   -2.6302 C   0  0  0  0  0  0  0  0  0  0  0  0
   -2.0768   -2.1662   -2.3020 C   0  0  2  0  0  0  0  0  0  0  0  0
   -1.9318   -2.3836   -0.9140 O   0  0  0  0  0  0  0  0  0  0  0  0
   -0.8004   -1.8745   -1.5802 C   0  0  2  0  0  0  0  0  0  0  0  0
   -0.4577   -0.4680   -1.0508 C   0  0  2  0  0  0  0  0  0  0  0  0
    0.2862    0.3681   -2.1121 C   0  0  0  0  0  0  0  0  0  0  0  0
    1.6710   -0.1511   -2.4177 C   0  0  0  0  0  0  0  0  0  0  0  0
    2.7905    0.3823   -1.7565 C   0  0  0  0  0  0  0  0  0  0  0  0
    4.0726   -0.0953   -2.0444 C   0  0  0  0  0  0  0  0  0  0  0  0
    4.2462   -1.1182   -2.9796 C   0  0  0  0  0  0  0  0  0  0  0  0
    3.1382   -1.6576   -3.6383 C   0  0  0  0  0  0  0  0  0  0  0  0
    1.8552   -1.1741   -3.3635 C   0  0  0  0  0  0  0  0  0  0  0  0
    0.3538   -0.5921    0.1639 N   0  0  0  0  0  0  0  0  0  0  0  0
    0.3156    0.3747    1.2239 C   0  0  0  0  0  0  0  0  0  0  0  0
   -0.3421    1.4418    1.0879 O   0  0  0  0  0  0  0  0  0  0  0  0
    1.0732    0.1318    2.5043 C   0  0  0  0  0  0  0  0  0  0  0  0
    0.5919   -1.1516    3.2097 C   0  0  0  0  0  0  0  0  0  0  0  0
   -0.8631   -1.0852    3.5743 C   0  0  0  0  0  0  0  0  0  0  0  0
   -1.8361   -1.7861    2.7994 N   0  0  0  0  0  0  0  0  0  0  0  0
   -1.2303   -0.3941    4.5616 O   0  0  0  0  0  0  0  0  0  0  0  0
    2.5060    0.0378    2.2106 N   0  0  0  0  0  0  0  0  0  0  0  0
    3.2898    1.1898    1.8597 C   0  0  0  0  0  0  0  0  0  0  0  0
    2.7784    2.3409    1.9337 O   0  0  0  0  0  0  0  0  0  0  0  0
    4.6851    1.0334    1.3958 C   0  0  0  0  0  0  0  0  0  0  0  0
    5.4547    2.1493    1.0246 C   0  0  0  0  0  0  0  0  0  0  0  0
    6.7595    1.9679    0.5613 C   0  0  0  0  0  0  0  0  0  0  0  0
    7.2929    0.6775    0.4667 C   0  0  0  0  0  0  0  0  0  0  0  0
    8.5960    0.4586   -0.0043 C   0  0  0  0  0  0  0  0  0  0  0  0
    9.0960   -0.8447   -0.0936 C   0  0  0  0  0  0  0  0  0  0  0  0
    8.3008   -1.9314    0.2855 C   0  0  0  0  0  0  0  0  0  0  0  0
    7.0011   -1.7212    0.7570 C   0  0  0  0  0  0  0  0  0  0  0  0
    6.4930   -0.4207    0.8505 C   0  0  0  0  0  0  0  0  0  0  0  0
    5.2265   -0.2129    1.2986 N   0  0  0  0  0  0  0  0  0  0  0  0
   -5.0242    0.2040    1.5154 C   0  0  0  0  0  0  0  0  0  0  0  0
   -6.0865    0.5125    2.5800 C   0  0  0  0  0  0  0  0  0  0  0  0
   -3.7039    0.9319    1.8239 C   0  0  0  0  0  0  0  0  0  0  0  0
   -6.2891    3.8438   -0.3990 H   0  0  0  0  0  0  0  0  0  0  0  0
   -4.6927    3.0333   -0.5209 H   0  0  0  0  0  0  0  0  0  0  0  0
   -5.5469    3.1931    1.0721 H   0  0  0  0  0  0  0  0  0  0  0  0
   -7.2915    1.6548    0.4205 H   0  0  0  0  0  0  0  0  0  0  0  0
   -7.4871    0.6652   -1.8609 H   0  0  0  0  0  0  0  0  0  0  0  0
   -6.1211    1.7076   -2.4215 H   0  0  0  0  0  0  0  0  0  0  0  0
   -7.6623    2.4516   -1.8504 H   0  0  0  0  0  0  0  0  0  0  0  0
   -6.2621   -0.4532   -0.0922 H   0  0  0  0  0  0  0  0  0  0  0  0
   -3.7746    1.0286   -1.0276 H   0  0  0  0  0  0  0  0  0  0  0  0
   -3.5066   -1.2522   -3.6311 H   0  0  0  0  0  0  0  0  0  0  0  0
   -2.5745   -0.0574   -2.7269 H   0  0  0  0  0  0  0  0  0  0  0  0
   -2.1524   -3.1316   -2.8450 H   0  0  0  0  0  0  0  0  0  0  0  0
   -0.0008   -2.6425   -1.6448 H   0  0  0  0  0  0  0  0  0  0  0  0
   -1.3967    0.0651   -0.7899 H   0  0  0  0  0  0  0  0  0  0  0  0
   -0.3065    0.4006   -3.0511 H   0  0  0  0  0  0  0  0  0  0  0  0
    0.3534    1.4191   -1.7549 H   0  0  0  0  0  0  0  0  0  0  0  0
    2.6706    1.1738   -1.0278 H   0  0  0  0  0  0  0  0  0  0  0  0
    4.9330    0.3313   -1.5479 H   0  0  0  0  0  0  0  0  0  0  0  0
    5.2395   -1.4889   -3.1974 H   0  0  0  0  0  0  0  0  0  0  0  0
    3.2738   -2.4475   -4.3657 H   0  0  0  0  0  0  0  0  0  0  0  0
    1.0066   -1.5956   -3.8878 H   0  0  0  0  0  0  0  0  0  0  0  0
    1.0230   -1.3914    0.2441 H   0  0  0  0  0  0  0  0  0  0  0  0
    0.9065    0.9829    3.2031 H   0  0  0  0  0  0  0  0  0  0  0  0
    0.7780   -2.0402    2.5685 H   0  0  0  0  0  0  0  0  0  0  0  0
    1.1821   -1.2943    4.1411 H   0  0  0  0  0  0  0  0  0  0  0  0
   -1.5557   -2.3274    1.9519 H   0  0  0  0  0  0  0  0  0  0  0  0
   -2.8424   -1.7680    3.0764 H   0  0  0  0  0  0  0  0  0  0  0  0
    2.9581   -0.9047    2.2000 H   0  0  0  0  0  0  0  0  0  0  0  0
    5.0502    3.1518    1.0855 H   0  0  0  0  0  0  0  0  0  0  0  0
    7.3467    2.8316    0.2732 H   0  0  0  0  0  0  0  0  0  0  0  0
    9.2229    1.2902   -0.3034 H   0  0  0  0  0  0  0  0  0  0  0  0
   10.1011   -1.0132   -0.4581 H   0  0  0  0  0  0  0  0  0  0  0  0
    8.6923   -2.9378    0.2130 H   0  0  0  0  0  0  0  0  0  0  0  0
    6.3913   -2.5683    1.0459 H   0  0  0  0  0  0  0  0  0  0  0  0
   -4.7944   -0.8805    1.6214 H   0  0  0  0  0  0  0  0  0  0  0  0
   -5.7387    0.1620    3.5753 H   0  0  0  0  0  0  0  0  0  0  0  0
   -6.2846    1.6017    2.6476 H   0  0  0  0  0  0  0  0  0  0  0  0
   -7.0337   -0.0171    2.3431 H   0  0  0  0  0  0  0  0  0  0  0  0
   -2.8884    0.5271    1.1910 H   0  0  0  0  0  0  0  0  0  0  0  0
   -3.4128    0.7611    2.8819 H   0  0  0  0  0  0  0  0  0  0  0  0
   -3.7708    2.0220    1.6639 H   0  0  0  0  0  0  0  0  0  0  0  0
  1  2  1  0
  2  3  1  0
  2  4  1  0
  4  5  1  0
  5  6  1  0
  6  7  2  0
  6  8  1  0
  8  9  1  0
  9 10  1  0
 10 11  1  0
 11 12  1  0
 12 13  1  0
 13 14  1  0
 14 15  2  0
 15 16  1  0
 16 17  2  0
 17 18  1  0
 18 19  2  0
 12 20  1  0
 20 21  1  0
 21 22  2  0
 21 23  1  0
 23 24  1  0
 24 25  1  0
 25 26  1  0
 25 27  2  0
 23 28  1  0
 28 29  1  0
 29 30  2  0
 29 31  1  0
 31 32  2  0
 32 33  1  0
 33 34  2  0
 34 35  1  0
 35 36  2  0
 36 37  1  0
 37 38  2  0
 38 39  1  0
 39 40  2  0
  4 41  1  0
 41 42  1  0
 41 43  1  0
 11  9  1  0
 19 14  1  0
 39 34  1  0
 40 31  1  0
  1 44  1  0
  1 45  1  0
  1 46  1  0
  2 47  1  0
  3 48  1  0
  3 49  1  0
  3 50  1  0
  4 51  1  0
  5 52  1  0
  8 53  1  0
  8 54  1  0
  9 55  1  6
 11 56  1  6
 12 57  1  1
 13 58  1  0
 13 59  1  0
 15 60  1  0
 16 61  1  0
 17 62  1  0
 18 63  1  0
 19 64  1  0
 20 65  1  0
 23 66  1  0
 24 67  1  0
 24 68  1  0
 26 69  1  0
 26 70  1  0
 28 71  1  0
 32 72  1  0
 33 73  1  0
 35 74  1  0
 36 75  1  0
 37 76  1  0
 38 77  1  0
 41 78  1  0
 42 79  1  0
 42 80  1  0
 42 81  1  0
 43 82  1  0
 43 83  1  0
 43 84  1  0
M  END
$$$$
