
     RDKit          3D

 84 87  0  0  0  0  0  0  0  0999 V2000
   -7.3837   -2.2400   -0.6746 C   0  0  0  0  0  0  0  0  0  0  0  0
   -5.8994   -1.9199   -0.4681 C   0  0  0  0  0  0  0  0  0  0  0  0
   -5.4260   -2.3996    0.9169 C   0  0  0  0  0  0  0  0  0  0  0  0
   -5.5094   -0.4470   -0.8334 C   0  0  0  0  0  0  0  0  0  0  0  0
   -4.0643   -0.2570   -0.6457 N   0  0  0  0  0  0  0  0  0  0  0  0
   -3.0858   -0.7479   -1.5753 C   0  0  0  0  0  0  0  0  0  0  0  0
   -3.4436   -1.2887   -2.6567 O   0  0  0  0  0  0  0  0  0  0  0  0
   -1.6295   -0.6660   -1.2371 C   0  0  0  0  0  0  0  0  0  0  0  0
   -1.2100   -1.9212   -0.4636 C   0  0  2  0  0  0  0  0  0  0  0  0
   -1.7160   -1.8826    0.8498 O   0  0  0  0  0  0  0  0  0  0  0  0
   -0.3108   -1.8823    0.7333 C   0  0  2  0  0  0  0  0  0  0  0  0
    0.3575   -0.5755    1.2444 C   0  0  2  0  0  0  0  0  0  0  0  0
   -0.5520    0.3368    2.1071 C   0  0  0  0  0  0  0  0  0  0  0  0
   -1.0458   -0.3486    3.3594 C   0  0  0  0  0  0  0  0  0  0  0  0
   -0.1494   -0.6714    4.3928 C   0  0  0  0  0  0  0  0  0  0  0  0
   -0.6073   -1.3091    5.5501 C   0  0  0  0  0  0  0  0  0  0  0  0
   -1.9618   -1.6238    5.6878 C   0  0  0  0  0  0  0  0  0  0  0  0
   -2.8622   -1.2969    4.6705 C   0  0  0  0  0  0  0  0  0  0  0  0
   -2.4093   -0.6579    3.5128 C   0  0  0  0  0  0  0  0  0  0  0  0
    0.9591    0.1777    0.1386 N   0  0  0  0  0  0  0  0  0  0  0  0
    2.0241   -0.3576   -0.6617 C   0  0  0  0  0  0  0  0  0  0  0  0
    2.5266   -1.4803   -0.3804 O   0  0  0  0  0  0  0  0  0  0  0  0
    2.5545    0.4190   -1.8369 C   0  0  0  0  0  0  0  0  0  0  0  0
    2.3288   -0.3747   -3.1368 C   0  0  0  0  0  0  0  0  0  0  0  0
    2.6991    0.4406   -4.3409 C   0  0  0  0  0  0  0  0  0  0  0  0
    1.7953    1.4182   -4.8556 N   0  0  0  0  0  0  0  0  0  0  0  0
    3.8260    0.2849   -4.8823 O   0  0  0  0  0  0  0  0  0  0  0  0
    3.9794    0.7015   -1.6332 N   0  0  0  0  0  0  0  0  0  0  0  0
    4.4299    1.7028   -0.7054 C   0  0  0  0  0  0  0  0  0  0  0  0
    3.5850    2.3812   -0.0587 O   0  0  0  0  0  0  0  0  0  0  0  0
    5.8754    1.9439   -0.5022 C   0  0  0  0  0  0  0  0  0  0  0  0
    6.3263    2.9166    0.4070 C   0  0  0  0  0  0  0  0  0  0  0  0
    7.6969    3.1223    0.5791 C   0  0  0  0  0  0  0  0  0  0  0  0
    8.6137    2.3601   -0.1535 C   0  0  0  0  0  0  0  0  0  0  0  0
    9.9971    2.5406   -0.0052 C   0  0  0  0  0  0  0  0  0  0  0  0
   10.8868    1.7616   -0.7525 C   0  0  0  0  0  0  0  0  0  0  0  0
   10.4017    0.8028   -1.6482 C   0  0  0  0  0  0  0  0  0  0  0  0
    9.0241    0.6168   -1.8016 C   0  0  0  0  0  0  0  0  0  0  0  0
    8.1265    1.3916   -1.0582 C   0  0  0  0  0  0  0  0  0  0  0  0
    6.7864    1.2139   -1.2045 N   0  0  0  0  0  0  0  0  0  0  0  0
   -6.2866    0.7374   -0.1603 C   0  0  0  0  0  0  0  0  0  0  0  0
   -7.6400    1.0422   -0.8254 C   0  0  0  0  0  0  0  0  0  0  0  0
   -6.4423    0.6347    1.3620 C   0  0  0  0  0  0  0  0  0  0  0  0
   -8.0019   -1.8189    0.1437 H   0  0  0  0  0  0  0  0  0  0  0  0
   -7.5329   -3.3411   -0.6745 H   0  0  0  0  0  0  0  0  0  0  0  0
   -7.7340   -1.8494   -1.6534 H   0  0  0  0  0  0  0  0  0  0  0  0
   -5.3564   -2.5587   -1.2005 H   0  0  0  0  0  0  0  0  0  0  0  0
   -6.0716   -2.0262    1.7337 H   0  0  0  0  0  0  0  0  0  0  0  0
   -4.3789   -2.0971    1.1153 H   0  0  0  0  0  0  0  0  0  0  0  0
   -5.4631   -3.5094    0.9548 H   0  0  0  0  0  0  0  0  0  0  0  0
   -5.7040   -0.3430   -1.9247 H   0  0  0  0  0  0  0  0  0  0  0  0
   -3.7224    0.2096    0.2248 H   0  0  0  0  0  0  0  0  0  0  0  0
   -1.0333   -0.6093   -2.1718 H   0  0  0  0  0  0  0  0  0  0  0  0
   -1.4571    0.2697   -0.6780 H   0  0  0  0  0  0  0  0  0  0  0  0
   -1.3881   -2.9152   -0.9260 H   0  0  0  0  0  0  0  0  0  0  0  0
    0.1155   -2.8540    1.0604 H   0  0  0  0  0  0  0  0  0  0  0  0
    1.1930   -0.8953    1.9050 H   0  0  0  0  0  0  0  0  0  0  0  0
   -1.4084    0.7127    1.5110 H   0  0  0  0  0  0  0  0  0  0  0  0
    0.0301    1.2336    2.4130 H   0  0  0  0  0  0  0  0  0  0  0  0
    0.9019   -0.4282    4.3031 H   0  0  0  0  0  0  0  0  0  0  0  0
    0.0884   -1.5582    6.3410 H   0  0  0  0  0  0  0  0  0  0  0  0
   -2.3142   -2.1172    6.5842 H   0  0  0  0  0  0  0  0  0  0  0  0
   -3.9121   -1.5372    4.7793 H   0  0  0  0  0  0  0  0  0  0  0  0
   -3.1214   -0.4076    2.7367 H   0  0  0  0  0  0  0  0  0  0  0  0
    0.6409    1.1559   -0.0482 H   0  0  0  0  0  0  0  0  0  0  0  0
    2.0022    1.3813   -1.9261 H   0  0  0  0  0  0  0  0  0  0  0  0
    2.9241   -1.3145   -3.1229 H   0  0  0  0  0  0  0  0  0  0  0  0
    1.2577   -0.6603   -3.2196 H   0  0  0  0  0  0  0  0  0  0  0  0
    0.8644    1.5699   -4.4073 H   0  0  0  0  0  0  0  0  0  0  0  0
    2.0582    1.9941   -5.6858 H   0  0  0  0  0  0  0  0  0  0  0  0
    4.6876    0.1313   -2.1486 H   0  0  0  0  0  0  0  0  0  0  0  0
    5.6270    3.5126    0.9798 H   0  0  0  0  0  0  0  0  0  0  0  0
    8.0382    3.8735    1.2813 H   0  0  0  0  0  0  0  0  0  0  0  0
   10.3875    3.2794    0.6844 H   0  0  0  0  0  0  0  0  0  0  0  0
   11.9539    1.9014   -0.6377 H   0  0  0  0  0  0  0  0  0  0  0  0
   11.0947    0.2029   -2.2239 H   0  0  0  0  0  0  0  0  0  0  0  0
    8.6574   -0.1280   -2.4971 H   0  0  0  0  0  0  0  0  0  0  0  0
   -5.6721    1.6485   -0.3430 H   0  0  0  0  0  0  0  0  0  0  0  0
   -7.5334    1.0957   -1.9295 H   0  0  0  0  0  0  0  0  0  0  0  0
   -8.0133    2.0288   -0.4757 H   0  0  0  0  0  0  0  0  0  0  0  0
   -8.4088    0.2884   -0.5717 H   0  0  0  0  0  0  0  0  0  0  0  0
   -6.7478    1.6210    1.7723 H   0  0  0  0  0  0  0  0  0  0  0  0
   -7.2302   -0.0959    1.6346 H   0  0  0  0  0  0  0  0  0  0  0  0
   -5.4820    0.3550    1.8419 H   0  0  0  0  0  0  0  0  0  0  0  0
  1  2  1  0
  2  3  1  0
  2  4  1  0
  4  5  1  0
  5  6  1  0
  6  7  2  0
  6  8  1  0
  8  9  1  0
  9 10  1  0
 10 11  1  0
 11 12  1  0
 12 13  1  0
 13 14  1  0
 14 15  2  0
 15 16  1  0
 16 17  2  0
 17 18  1  0
 18 19  2  0
 12 20  1  0
 20 21  1  0
 21 22  2  0
 21 23  1  0
 23 24  1  0
 24 25  1  0
 25 26  1  0
 25 27  2  0
 23 28  1  0
 28 29  1  0
 29 30  2  0
 29 31  1  0
 31 32  2  0
 32 33  1  0
 33 34  2  0
 34 35  1  0
 35 36  2  0
 36 37  1  0
 37 38  2  0
 38 39  1  0
 39 40  2  0
  4 41  1  0
 41 42  1  0
 41 43  1  0
 11  9  1  0
 19 14  1  0
 39 34  1  0
 40 31  1  0
  1 44  1  0
  1 45  1  0
  1 46  1  0
  2 47  1  0
  3 48  1  0
  3 49  1  0
  3 50  1  0
  4 51  1  0
  5 52  1  0
  8 53  1  0
  8 54  1  0
  9 55  1  6
 11 56  1  1
 12 57  1  1
 13 58  1  0
 13 59  1  0
 15 60  1  0
 16 61  1  0
 17 62  1  0
 18 63  1  0
 19 64  1  0
 20 65  1  0
 23 66  1  0
 24 67  1  0
 24 68  1  0
 26 69  1  0
 26 70  1  0
 28 71  1  0
 32 72  1  0
 33 73  1  0
 35 74  1  0
 36 75  1  0
 37 76  1  0
 38 77  1  0
 41 78  1  0
 42 79  1  0
 42 80  1  0
 42 81  1  0
 43 82  1  0
 43 83  1  0
 43 84  1  0
M  END
$$$$
