
     RDKit          3D

 64 68  0  0  0  0  0  0  0  0999 V2000
   -3.3572    2.5679   -2.8409 C   0  0  0  0  0  0  0  0  0  0  0  0
   -4.3523    1.7417   -2.0238 C   0  0  0  0  0  0  0  0  0  0  0  0
   -3.7211    1.1959   -0.7192 C   0  0  0  0  0  0  0  0  0  0  0  0
   -2.7075    0.0994   -0.9977 C   0  0  0  0  0  0  0  0  0  0  0  0
   -3.1042   -1.1341   -1.5451 C   0  0  0  0  0  0  0  0  0  0  0  0
   -2.1640   -2.1393   -1.7783 C   0  0  0  0  0  0  0  0  0  0  0  0
   -0.8177   -1.9245   -1.4797 C   0  0  0  0  0  0  0  0  0  0  0  0
   -0.3944   -0.6948   -0.9577 C   0  0  0  0  0  0  0  0  0  0  0  0
    0.9955   -0.5049   -0.6427 N   0  0  0  0  0  0  0  0  0  0  0  0
    1.6838    0.7497   -0.7663 C   0  0  0  0  0  0  0  0  0  0  0  0
    1.1550    1.7156   -1.3806 O   0  0  0  0  0  0  0  0  0  0  0  0
    3.0816    0.8892   -0.2444 C   0  0  0  0  0  0  0  0  0  0  0  0
    4.0945    0.4040   -1.2844 C   0  0  0  0  0  0  0  0  0  0  0  0
    5.4636    0.5725   -0.7764 N   0  0  0  0  0  0  0  0  0  0  0  0
    5.9242   -0.6095   -0.0273 C   0  0  0  0  0  0  0  0  0  0  0  0
    6.4378   -1.7020   -0.9420 C   0  0  0  0  0  0  0  0  0  0  0  0
    7.7292   -1.9522   -0.7405 C   0  0  0  0  0  0  0  0  0  0  0  0
    8.2042   -1.0745    0.3080 C   0  0  0  0  0  0  0  0  0  0  0  0
    9.4780   -0.9749    0.8662 C   0  0  0  0  0  0  0  0  0  0  0  0
    9.6812   -0.0369    1.8924 C   0  0  0  0  0  0  0  0  0  0  0  0
    8.6161    0.7728    2.3369 C   0  0  0  0  0  0  0  0  0  0  0  0
    7.3419    0.6500    1.7570 C   0  0  0  0  0  0  0  0  0  0  0  0
    7.1646   -0.2853    0.7357 C   0  0  0  0  0  0  0  0  0  0  0  0
   -1.3479    0.3065   -0.6996 C   0  0  0  0  0  0  0  0  0  0  0  0
   -4.7236    0.7394    0.3469 C   0  0  0  0  0  0  0  0  0  0  0  0
   -4.3711    0.8669    1.7101 C   0  0  0  0  0  0  0  0  0  0  0  0
   -3.1455    1.4202    2.0727 O   0  0  0  0  0  0  0  0  0  0  0  0
   -5.1938    0.4579    2.6700 O   0  0  0  0  0  0  0  0  0  0  0  0
   -6.3703   -0.1010    2.4243 C   0  0  0  0  0  0  0  0  0  0  0  0
   -7.1815   -0.5017    3.4922 C   0  0  0  0  0  0  0  0  0  0  0  0
   -8.4201   -1.0998    3.2471 C   0  0  0  0  0  0  0  0  0  0  0  0
   -8.8535   -1.3013    1.9343 C   0  0  0  0  0  0  0  0  0  0  0  0
   -8.0511   -0.9044    0.8602 C   0  0  0  0  0  0  0  0  0  0  0  0
   -6.8018   -0.2980    1.0963 C   0  0  0  0  0  0  0  0  0  0  0  0
   -5.9615    0.1178    0.0491 C   0  0  0  0  0  0  0  0  0  0  0  0
   -6.3196   -0.0718   -1.1444 O   0  0  0  0  0  0  0  0  0  0  0  0
   -2.4867    1.9456   -3.1385 H   0  0  0  0  0  0  0  0  0  0  0  0
   -3.0008    3.4403   -2.2531 H   0  0  0  0  0  0  0  0  0  0  0  0
   -3.8534    2.9424   -3.7610 H   0  0  0  0  0  0  0  0  0  0  0  0
   -5.2171    2.3937   -1.7716 H   0  0  0  0  0  0  0  0  0  0  0  0
   -4.7136    0.9153   -2.6710 H   0  0  0  0  0  0  0  0  0  0  0  0
   -3.1880    2.0707   -0.2840 H   0  0  0  0  0  0  0  0  0  0  0  0
   -4.1402   -1.3247   -1.7864 H   0  0  0  0  0  0  0  0  0  0  0  0
   -2.4802   -3.0883   -2.1916 H   0  0  0  0  0  0  0  0  0  0  0  0
   -0.0997   -2.7134   -1.6660 H   0  0  0  0  0  0  0  0  0  0  0  0
    1.5623   -1.3473   -0.3939 H   0  0  0  0  0  0  0  0  0  0  0  0
    3.1791    0.3009    0.6923 H   0  0  0  0  0  0  0  0  0  0  0  0
    3.2827    1.9550    0.0010 H   0  0  0  0  0  0  0  0  0  0  0  0
    3.8885   -0.6545   -1.5627 H   0  0  0  0  0  0  0  0  0  0  0  0
    3.9708    1.0167   -2.2059 H   0  0  0  0  0  0  0  0  0  0  0  0
    6.1053    0.7432   -1.5875 H   0  0  0  0  0  0  0  0  0  0  0  0
    5.1472   -1.0022    0.6642 H   0  0  0  0  0  0  0  0  0  0  0  0
    5.8352   -2.2274   -1.6711 H   0  0  0  0  0  0  0  0  0  0  0  0
    8.3133   -2.6916   -1.2725 H   0  0  0  0  0  0  0  0  0  0  0  0
   10.2885   -1.6034    0.5204 H   0  0  0  0  0  0  0  0  0  0  0  0
   10.6593    0.0630    2.3447 H   0  0  0  0  0  0  0  0  0  0  0  0
    8.7800    1.4916    3.1292 H   0  0  0  0  0  0  0  0  0  0  0  0
    6.5183    1.2663    2.0936 H   0  0  0  0  0  0  0  0  0  0  0  0
   -1.0383    1.2379   -0.2443 H   0  0  0  0  0  0  0  0  0  0  0  0
   -2.8855    1.5103    3.0473 H   0  0  0  0  0  0  0  0  0  0  0  0
   -6.8509   -0.3510    4.5122 H   0  0  0  0  0  0  0  0  0  0  0  0
   -9.0444   -1.4088    4.0756 H   0  0  0  0  0  0  0  0  0  0  0  0
   -9.8133   -1.7659    1.7485 H   0  0  0  0  0  0  0  0  0  0  0  0
   -8.4096   -1.0708   -0.1482 H   0  0  0  0  0  0  0  0  0  0  0  0
  1  2  1  0
  2  3  1  0
  3  4  1  0
  4  5  2  0
  5  6  1  0
  6  7  2  0
  7  8  1  0
  8  9  1  0
  9 10  1  0
 10 11  2  0
 10 12  1  0
 12 13  1  0
 13 14  1  0
 14 15  1  0
 15 16  1  0
 16 17  2  0
 17 18  1  0
 18 19  2  0
 19 20  1  0
 20 21  2  0
 21 22  1  0
 22 23  2  0
  8 24  2  0
  3 25  1  0
 25 26  2  0
 26 27  1  0
 26 28  1  0
 28 29  1  0
 29 30  2  0
 30 31  1  0
 31 32  2  0
 32 33  1  0
 33 34  2  0
 34 35  1  0
 35 36  2  0
 23 15  1  0
 23 18  1  0
 24  4  1  0
 34 29  1  0
 35 25  1  0
  1 37  1  0
  1 38  1  0
  1 39  1  0
  2 40  1  0
  2 41  1  0
  3 42  1  0
  5 43  1  0
  6 44  1  0
  7 45  1  0
  9 46  1  0
 12 47  1  0
 12 48  1  0
 13 49  1  0
 13 50  1  0
 14 51  1  0
 15 52  1  0
 16 53  1  0
 17 54  1  0
 19 55  1  0
 20 56  1  0
 21 57  1  0
 22 58  1  0
 24 59  1  0
 27 60  1  0
 30 61  1  0
 31 62  1  0
 32 63  1  0
 33 64  1  0
M  END
$$$$
