
     RDKit          3D

 74 77  0  0  0  0  0  0  0  0999 V2000
   -2.6204   -5.8000    1.6446 C   0  0  0  0  0  0  0  0  0  0  0  0
   -3.6109   -4.8085    1.3931 O   0  0  0  0  0  0  0  0  0  0  0  0
   -3.3977   -3.4276    1.5165 C   0  0  0  0  0  0  0  0  0  0  0  0
   -2.1599   -2.8867    1.9135 C   0  0  0  0  0  0  0  0  0  0  0  0
   -1.9969   -1.5023    2.0176 C   0  0  0  0  0  0  0  0  0  0  0  0
   -3.0601   -0.6394    1.7193 C   0  0  0  0  0  0  0  0  0  0  0  0
   -2.8442    1.1103    1.8385 S   0  0  0  0  0  0  0  0  0  0  0  0
   -4.1867    1.7783    1.9436 O   0  0  0  0  0  0  0  0  0  0  0  0
   -2.0817    1.4061    3.0994 O   0  0  0  0  0  0  0  0  0  0  0  0
   -1.9670    1.7869    0.4825 N   0  0  0  0  0  0  0  0  0  0  0  0
   -0.7294    1.0778    0.1112 C   0  0  0  0  0  0  0  0  0  0  0  0
    0.2540    2.0453   -0.5738 C   0  0  1  0  0  0  0  0  0  0  0  0
    0.6240    3.0345    0.3531 O   0  0  0  0  0  0  0  0  0  0  0  0
    1.5245    1.3344   -1.1152 C   0  0  2  0  0  0  0  0  0  0  0  0
    1.2292    0.5038   -2.3828 C   0  0  0  0  0  0  0  0  0  0  0  0
    2.5015   -0.0223   -2.9975 C   0  0  0  0  0  0  0  0  0  0  0  0
    2.9507   -1.3212   -2.7038 C   0  0  0  0  0  0  0  0  0  0  0  0
    4.1489   -1.7922   -3.2494 C   0  0  0  0  0  0  0  0  0  0  0  0
    4.9092   -0.9698   -4.0854 C   0  0  0  0  0  0  0  0  0  0  0  0
    4.4738    0.3261   -4.3753 C   0  0  0  0  0  0  0  0  0  0  0  0
    3.2764    0.8013   -3.8315 C   0  0  0  0  0  0  0  0  0  0  0  0
    2.1331    0.4904   -0.0794 N   0  0  0  0  0  0  0  0  0  0  0  0
    3.0608    0.9946    0.8871 C   0  0  0  0  0  0  0  0  0  0  0  0
    3.4940    2.1766    0.8010 O   0  0  0  0  0  0  0  0  0  0  0  0
    3.4804    0.1600    1.9275 O   0  0  0  0  0  0  0  0  0  0  0  0
    4.3515    0.5937    2.9716 C   0  0  0  0  0  0  0  0  0  0  0  0
    4.7347   -0.5524    3.8554 C   0  0  0  0  0  0  0  0  0  0  0  0
    4.8775    0.1038    5.2134 C   0  0  0  0  0  0  0  0  0  0  0  0
    4.1208    1.2933    5.2430 O   0  0  0  0  0  0  0  0  0  0  0  0
    3.6536    1.5371    3.9359 C   0  0  0  0  0  0  0  0  0  0  0  0
   -2.7635    2.1734   -0.5727 O   0  0  0  0  0  0  0  0  0  0  0  0
   -3.3362    1.0618   -1.2537 C   0  0  0  0  0  0  0  0  0  0  0  0
   -4.8417    1.2625   -1.3674 C   0  0  0  0  0  0  0  0  0  0  0  0
   -5.0713    2.0711   -2.6390 C   0  0  0  0  0  0  0  0  0  0  0  0
   -3.7905    1.9698   -3.4625 C   0  0  0  0  0  0  0  0  0  0  0  0
   -2.8564    1.0432   -2.6984 C   0  0  0  0  0  0  0  0  0  0  0  0
   -4.2975   -1.1784    1.3396 C   0  0  0  0  0  0  0  0  0  0  0  0
   -4.4610   -2.5622    1.2345 C   0  0  0  0  0  0  0  0  0  0  0  0
   -3.0588   -6.8034    1.4678 H   0  0  0  0  0  0  0  0  0  0  0  0
   -2.2808   -5.7412    2.7002 H   0  0  0  0  0  0  0  0  0  0  0  0
   -1.7590   -5.6620    0.9574 H   0  0  0  0  0  0  0  0  0  0  0  0
   -1.3194   -3.5263    2.1455 H   0  0  0  0  0  0  0  0  0  0  0  0
   -1.0414   -1.1067    2.3352 H   0  0  0  0  0  0  0  0  0  0  0  0
   -0.9429    0.2030   -0.5316 H   0  0  0  0  0  0  0  0  0  0  0  0
   -0.2413    0.6947    1.0319 H   0  0  0  0  0  0  0  0  0  0  0  0
   -0.2702    2.5328   -1.4278 H   0  0  0  0  0  0  0  0  0  0  0  0
    0.9804    3.8014   -0.1675 H   0  0  0  0  0  0  0  0  0  0  0  0
    2.2481    2.1254   -1.4163 H   0  0  0  0  0  0  0  0  0  0  0  0
    0.7068    1.1385   -3.1315 H   0  0  0  0  0  0  0  0  0  0  0  0
    0.5502   -0.3433   -2.1484 H   0  0  0  0  0  0  0  0  0  0  0  0
    2.3755   -1.9671   -2.0522 H   0  0  0  0  0  0  0  0  0  0  0  0
    4.4895   -2.7940   -3.0218 H   0  0  0  0  0  0  0  0  0  0  0  0
    5.8369   -1.3356   -4.5059 H   0  0  0  0  0  0  0  0  0  0  0  0
    5.0658    0.9639   -5.0188 H   0  0  0  0  0  0  0  0  0  0  0  0
    2.9540    1.8104   -4.0570 H   0  0  0  0  0  0  0  0  0  0  0  0
    1.7894   -0.4891    0.0434 H   0  0  0  0  0  0  0  0  0  0  0  0
    5.2675    1.0680    2.5508 H   0  0  0  0  0  0  0  0  0  0  0  0
    5.6827   -1.0300    3.5245 H   0  0  0  0  0  0  0  0  0  0  0  0
    3.9207   -1.3111    3.8891 H   0  0  0  0  0  0  0  0  0  0  0  0
    5.9444    0.3538    5.4013 H   0  0  0  0  0  0  0  0  0  0  0  0
    4.5289   -0.5822    6.0146 H   0  0  0  0  0  0  0  0  0  0  0  0
    3.8571    2.5931    3.6578 H   0  0  0  0  0  0  0  0  0  0  0  0
    2.5539    1.3718    3.9152 H   0  0  0  0  0  0  0  0  0  0  0  0
   -3.1286    0.0795   -0.7863 H   0  0  0  0  0  0  0  0  0  0  0  0
   -5.2598    1.7827   -0.4795 H   0  0  0  0  0  0  0  0  0  0  0  0
   -5.3397    0.2720   -1.4650 H   0  0  0  0  0  0  0  0  0  0  0  0
   -5.2741    3.1342   -2.3820 H   0  0  0  0  0  0  0  0  0  0  0  0
   -5.9391    1.6678   -3.2051 H   0  0  0  0  0  0  0  0  0  0  0  0
   -3.3238    2.9748   -3.5602 H   0  0  0  0  0  0  0  0  0  0  0  0
   -3.9975    1.5689   -4.4787 H   0  0  0  0  0  0  0  0  0  0  0  0
   -2.9479    0.0108   -3.1040 H   0  0  0  0  0  0  0  0  0  0  0  0
   -1.7999    1.3665   -2.7945 H   0  0  0  0  0  0  0  0  0  0  0  0
   -5.1338   -0.5298    1.1142 H   0  0  0  0  0  0  0  0  0  0  0  0
   -5.4192   -2.9650    0.9315 H   0  0  0  0  0  0  0  0  0  0  0  0
  1  2  1  0
  2  3  1  0
  3  4  2  0
  4  5  1  0
  5  6  2  0
  6  7  1  0
  7  8  2  0
  7  9  2  0
  7 10  1  0
 10 11  1  0
 11 12  1  0
 12 13  1  0
 12 14  1  0
 14 15  1  0
 15 16  1  0
 16 17  2  0
 17 18  1  0
 18 19  2  0
 19 20  1  0
 20 21  2  0
 14 22  1  0
 22 23  1  0
 23 24  2  0
 23 25  1  0
 25 26  1  0
 26 27  1  0
 27 28  1  0
 28 29  1  0
 29 30  1  0
 10 31  1  0
 31 32  1  0
 32 33  1  0
 33 34  1  0
 34 35  1  0
 35 36  1  0
  6 37  1  0
 37 38  2  0
 21 16  1  0
 30 26  1  0
 36 32  1  0
 38  3  1  0
  1 39  1  0
  1 40  1  0
  1 41  1  0
  4 42  1  0
  5 43  1  0
 11 44  1  0
 11 45  1  0
 12 46  1  6
 13 47  1  0
 14 48  1  6
 15 49  1  0
 15 50  1  0
 17 51  1  0
 18 52  1  0
 19 53  1  0
 20 54  1  0
 21 55  1  0
 22 56  1  0
 26 57  1  0
 27 58  1  0
 27 59  1  0
 28 60  1  0
 28 61  1  0
 30 62  1  0
 30 63  1  0
 32 64  1  0
 33 65  1  0
 33 66  1  0
 34 67  1  0
 34 68  1  0
 35 69  1  0
 35 70  1  0
 36 71  1  0
 36 72  1  0
 37 73  1  0
 38 74  1  0
M  END
$$$$
