
     RDKit          3D

 77 81  0  0  0  0  0  0  0  0999 V2000
    6.1429   -3.0990    1.0816 C   0  0  0  0  0  0  0  0  0  0  0  0
    5.6685   -1.6706    1.4199 C   0  0  0  0  0  0  0  0  0  0  0  0
    4.4725   -1.7700    2.3868 C   0  0  0  0  0  0  0  0  0  0  0  0
    6.8348   -0.9140    2.0854 C   0  0  0  0  0  0  0  0  0  0  0  0
    5.2637   -0.9914    0.1733 N   0  0  0  0  0  0  0  0  0  0  0  0
    4.7815    0.3626    0.0874 C   0  0  0  0  0  0  0  0  0  0  0  0
    4.6558    1.0683    1.1233 O   0  0  0  0  0  0  0  0  0  0  0  0
    4.4746    0.9500   -1.2330 C   0  0  0  0  0  0  0  0  0  0  0  0
    5.4715    0.9043   -2.2225 C   0  0  0  0  0  0  0  0  0  0  0  0
    5.2475    1.4547   -3.4849 C   0  0  0  0  0  0  0  0  0  0  0  0
    4.0228    2.0502   -3.7798 C   0  0  0  0  0  0  0  0  0  0  0  0
    3.0153    2.0926   -2.8152 C   0  0  0  0  0  0  0  0  0  0  0  0
    3.2227    1.5525   -1.5324 C   0  0  0  0  0  0  0  0  0  0  0  0
    2.0514    1.5350   -0.5714 C   0  0  0  0  0  0  0  0  0  0  0  0
    1.1553    0.2989   -0.8065 C   0  0  1  0  0  0  0  0  0  0  0  0
    1.8903   -0.8814   -0.5916 O   0  0  0  0  0  0  0  0  0  0  0  0
   -0.1115    0.3343    0.0938 C   0  0  2  0  0  0  0  0  0  0  0  0
   -0.9433   -0.9584   -0.0117 C   0  0  0  0  0  0  0  0  0  0  0  0
   -1.6347   -1.1865   -1.6904 S   0  0  0  0  0  0  0  0  0  0  0  0
   -2.6750   -2.5637   -1.2068 C   0  0  0  0  0  0  0  0  0  0  0  0
   -2.1838   -3.8717   -1.2797 C   0  0  0  0  0  0  0  0  0  0  0  0
   -2.9901   -4.9488   -0.9015 C   0  0  0  0  0  0  0  0  0  0  0  0
   -4.2989   -4.7242   -0.4480 C   0  0  0  0  0  0  0  0  0  0  0  0
   -5.1181   -5.7972   -0.0640 C   0  0  0  0  0  0  0  0  0  0  0  0
   -6.4200   -5.5596    0.3863 C   0  0  0  0  0  0  0  0  0  0  0  0
   -6.9129   -4.2537    0.4568 C   0  0  0  0  0  0  0  0  0  0  0  0
   -6.1077   -3.1759    0.0774 C   0  0  0  0  0  0  0  0  0  0  0  0
   -4.7988   -3.4003   -0.3767 C   0  0  0  0  0  0  0  0  0  0  0  0
   -3.9802   -2.3273   -0.7599 C   0  0  0  0  0  0  0  0  0  0  0  0
   -0.9568    1.4875   -0.2391 N   0  0  0  0  0  0  0  0  0  0  0  0
   -1.9397    2.0056    0.6697 C   0  0  0  0  0  0  0  0  0  0  0  0
   -1.9568    1.6187    1.8699 O   0  0  0  0  0  0  0  0  0  0  0  0
   -2.9685    2.9535    0.1879 C   0  0  0  0  0  0  0  0  0  0  0  0
   -3.6425    2.6465   -1.0043 C   0  0  0  0  0  0  0  0  0  0  0  0
   -4.6605    3.4788   -1.4662 C   0  0  0  0  0  0  0  0  0  0  0  0
   -5.0028    4.5909   -0.7691 N   0  0  0  0  0  0  0  0  0  0  0  0
   -4.3717    4.9384    0.3830 C   0  0  0  0  0  0  0  0  0  0  0  0
   -4.7562    6.1050    1.0539 C   0  0  0  0  0  0  0  0  0  0  0  0
   -4.0995    6.4911    2.2233 C   0  0  0  0  0  0  0  0  0  0  0  0
   -3.0496    5.7197    2.7239 C   0  0  0  0  0  0  0  0  0  0  0  0
   -2.6564    4.5505    2.0658 C   0  0  0  0  0  0  0  0  0  0  0  0
   -3.3234    4.1307    0.8950 C   0  0  0  0  0  0  0  0  0  0  0  0
    7.0069   -3.0655    0.3830 H   0  0  0  0  0  0  0  0  0  0  0  0
    5.3255   -3.6748    0.5957 H   0  0  0  0  0  0  0  0  0  0  0  0
    6.4556   -3.6429    1.9994 H   0  0  0  0  0  0  0  0  0  0  0  0
    4.7510   -2.3496    3.2935 H   0  0  0  0  0  0  0  0  0  0  0  0
    4.1328   -0.7688    2.7207 H   0  0  0  0  0  0  0  0  0  0  0  0
    3.6195   -2.2818    1.8923 H   0  0  0  0  0  0  0  0  0  0  0  0
    7.6662   -0.7760    1.3610 H   0  0  0  0  0  0  0  0  0  0  0  0
    7.2202   -1.4806    2.9606 H   0  0  0  0  0  0  0  0  0  0  0  0
    6.5187    0.0847    2.4487 H   0  0  0  0  0  0  0  0  0  0  0  0
    5.3156   -1.5265   -0.7241 H   0  0  0  0  0  0  0  0  0  0  0  0
    6.4329    0.4513   -2.0115 H   0  0  0  0  0  0  0  0  0  0  0  0
    6.0256    1.4184   -4.2365 H   0  0  0  0  0  0  0  0  0  0  0  0
    3.8490    2.4705   -4.7620 H   0  0  0  0  0  0  0  0  0  0  0  0
    2.0616    2.5365   -3.0745 H   0  0  0  0  0  0  0  0  0  0  0  0
    1.4565    2.4621   -0.7202 H   0  0  0  0  0  0  0  0  0  0  0  0
    2.3826    1.5656    0.4844 H   0  0  0  0  0  0  0  0  0  0  0  0
    0.8325    0.3056   -1.8705 H   0  0  0  0  0  0  0  0  0  0  0  0
    2.1433   -0.9032    0.3681 H   0  0  0  0  0  0  0  0  0  0  0  0
    0.2308    0.4304    1.1487 H   0  0  0  0  0  0  0  0  0  0  0  0
   -1.7768   -0.9071    0.7215 H   0  0  0  0  0  0  0  0  0  0  0  0
   -0.3229   -1.8405    0.2539 H   0  0  0  0  0  0  0  0  0  0  0  0
   -1.1746   -4.0547   -1.6263 H   0  0  0  0  0  0  0  0  0  0  0  0
   -2.5917   -5.9545   -0.9626 H   0  0  0  0  0  0  0  0  0  0  0  0
   -4.7526   -6.8161   -0.1120 H   0  0  0  0  0  0  0  0  0  0  0  0
   -7.0486   -6.3897    0.6816 H   0  0  0  0  0  0  0  0  0  0  0  0
   -7.9218   -4.0765    0.8065 H   0  0  0  0  0  0  0  0  0  0  0  0
   -6.5064   -2.1703    0.1388 H   0  0  0  0  0  0  0  0  0  0  0  0
   -4.3500   -1.3096   -0.7082 H   0  0  0  0  0  0  0  0  0  0  0  0
   -0.8940    1.9072   -1.1948 H   0  0  0  0  0  0  0  0  0  0  0  0
   -3.4003    1.7501   -1.5628 H   0  0  0  0  0  0  0  0  0  0  0  0
   -5.1867    3.2347   -2.3794 H   0  0  0  0  0  0  0  0  0  0  0  0
   -5.5605    6.7179    0.6658 H   0  0  0  0  0  0  0  0  0  0  0  0
   -4.3979    7.3957    2.7371 H   0  0  0  0  0  0  0  0  0  0  0  0
   -2.5334    6.0321    3.6226 H   0  0  0  0  0  0  0  0  0  0  0  0
   -1.8206    3.9991    2.4720 H   0  0  0  0  0  0  0  0  0  0  0  0
  1  2  1  0
  2  3  1  0
  2  4  1  0
  2  5  1  0
  5  6  1  0
  6  7  2  0
  6  8  1  0
  8  9  2  0
  9 10  1  0
 10 11  2  0
 11 12  1  0
 12 13  2  0
 13 14  1  0
 14 15  1  0
 15 16  1  0
 15 17  1  0
 17 18  1  0
 18 19  1  0
 19 20  1  0
 20 21  2  0
 21 22  1  0
 22 23  2  0
 23 24  1  0
 24 25  2  0
 25 26  1  0
 26 27  2  0
 27 28  1  0
 28 29  2  0
 17 30  1  0
 30 31  1  0
 31 32  2  0
 31 33  1  0
 33 34  2  0
 34 35  1  0
 35 36  2  0
 36 37  1  0
 37 38  2  0
 38 39  1  0
 39 40  2  0
 40 41  1  0
 41 42  2  0
 13  8  1  0
 28 23  1  0
 29 20  1  0
 42 33  1  0
 42 37  1  0
  1 43  1  0
  1 44  1  0
  1 45  1  0
  3 46  1  0
  3 47  1  0
  3 48  1  0
  4 49  1  0
  4 50  1  0
  4 51  1  0
  5 52  1  0
  9 53  1  0
 10 54  1  0
 11 55  1  0
 12 56  1  0
 14 57  1  0
 14 58  1  0
 15 59  1  6
 16 60  1  0
 17 61  1  1
 18 62  1  0
 18 63  1  0
 21 64  1  0
 22 65  1  0
 24 66  1  0
 25 67  1  0
 26 68  1  0
 27 69  1  0
 29 70  1  0
 30 71  1  0
 34 72  1  0
 35 73  1  0
 38 74  1  0
 39 75  1  0
 40 76  1  0
 41 77  1  0
M  END
$$$$
