
     RDKit          3D

 86 88  0  0  0  0  0  0  0  0999 V2000
   -5.7286   -1.8858   -1.6545 C   0  0  0  0  0  0  0  0  0  0  0  0
   -5.4272   -0.3915   -1.8438 C   0  0  0  0  0  0  0  0  0  0  0  0
   -5.0959   -0.1089   -3.3148 C   0  0  0  0  0  0  0  0  0  0  0  0
   -4.2650    0.0792   -0.9413 C   0  0  0  0  0  0  0  0  0  0  0  0
   -4.6144    0.0367    0.5560 C   0  0  0  0  0  0  0  0  0  0  0  0
   -3.5849    0.7356    1.3524 N   0  0  0  0  0  0  0  0  0  0  0  0
   -2.3317   -0.0481    1.4689 C   0  0  0  0  0  0  0  0  0  0  0  0
   -1.1864    0.7088    0.7640 C   0  0  1  0  0  0  0  0  0  0  0  0
   -0.9136    1.9378    1.3939 O   0  0  0  0  0  0  0  0  0  0  0  0
    0.0960   -0.1459    0.5951 C   0  0  2  0  0  0  0  0  0  0  0  0
    0.7356   -0.5853    1.9326 C   0  0  0  0  0  0  0  0  0  0  0  0
    2.0433   -1.3125    1.7190 C   0  0  0  0  0  0  0  0  0  0  0  0
    2.0613   -2.5918    1.1440 C   0  0  0  0  0  0  0  0  0  0  0  0
    3.2747   -3.2541    0.9329 C   0  0  0  0  0  0  0  0  0  0  0  0
    4.4889   -2.6636    1.3061 C   0  0  0  0  0  0  0  0  0  0  0  0
    5.6692   -3.3998    1.0913 O   0  0  0  0  0  0  0  0  0  0  0  0
    6.9908   -3.0377    1.5017 C   0  0  0  0  0  0  0  0  0  0  0  0
    7.8448   -2.5563    0.3185 C   0  0  0  0  0  0  0  0  0  0  0  0
    7.3305   -1.2558   -0.3223 C   0  0  0  0  0  0  0  0  0  0  0  0
    6.3588   -1.5203   -1.4854 C   0  0  0  0  0  0  0  0  0  0  0  0
    5.4512   -0.3474   -1.7203 C   0  0  0  0  0  0  0  0  0  0  0  0
    5.9368    0.8135   -1.8059 O   0  0  0  0  0  0  0  0  0  0  0  0
    4.0392   -0.5551   -1.8646 N   0  0  0  0  0  0  0  0  0  0  0  0
    3.0683    0.5436   -1.8023 C   0  0  1  0  0  0  0  0  0  0  0  0
    2.9931    1.3018   -3.1562 C   0  0  0  0  0  0  0  0  0  0  0  0
    2.0737    2.5282   -3.0625 C   0  0  0  0  0  0  0  0  0  0  0  0
    2.5749    0.4064   -4.3337 C   0  0  0  0  0  0  0  0  0  0  0  0
    1.7283    0.0156   -1.3434 C   0  0  0  0  0  0  0  0  0  0  0  0
    1.1976   -0.9575   -1.9459 O   0  0  0  0  0  0  0  0  0  0  0  0
    1.0745    0.5978   -0.2063 N   0  0  0  0  0  0  0  0  0  0  0  0
    4.4701   -1.3752    1.8771 C   0  0  0  0  0  0  0  0  0  0  0  0
    3.2586   -0.7049    2.0703 C   0  0  0  0  0  0  0  0  0  0  0  0
   -4.2277    1.1224    2.9331 S   0  0  0  0  0  0  0  0  0  0  0  0
   -3.1599    1.7468    3.7871 O   0  0  0  0  0  0  0  0  0  0  0  0
   -4.7160   -0.1373    3.5947 O   0  0  0  0  0  0  0  0  0  0  0  0
   -5.5513    2.2732    2.7727 C   0  0  0  0  0  0  0  0  0  0  0  0
   -5.4520    3.3235    1.8490 C   0  0  0  0  0  0  0  0  0  0  0  0
   -6.4995    4.2395    1.7117 C   0  0  0  0  0  0  0  0  0  0  0  0
   -7.6478    4.1128    2.4988 C   0  0  0  0  0  0  0  0  0  0  0  0
   -7.7489    3.0707    3.4251 C   0  0  0  0  0  0  0  0  0  0  0  0
   -6.7031    2.1524    3.5641 C   0  0  0  0  0  0  0  0  0  0  0  0
   -6.5154   -2.2125   -2.3676 H   0  0  0  0  0  0  0  0  0  0  0  0
   -6.1091   -2.0816   -0.6310 H   0  0  0  0  0  0  0  0  0  0  0  0
   -4.8158   -2.4957   -1.8265 H   0  0  0  0  0  0  0  0  0  0  0  0
   -6.3427    0.1871   -1.5885 H   0  0  0  0  0  0  0  0  0  0  0  0
   -4.9223    0.9777   -3.4681 H   0  0  0  0  0  0  0  0  0  0  0  0
   -5.9428   -0.4143   -3.9660 H   0  0  0  0  0  0  0  0  0  0  0  0
   -4.1852   -0.6652   -3.6253 H   0  0  0  0  0  0  0  0  0  0  0  0
   -3.3666   -0.5444   -1.1399 H   0  0  0  0  0  0  0  0  0  0  0  0
   -4.0112    1.1307   -1.2023 H   0  0  0  0  0  0  0  0  0  0  0  0
   -5.5974    0.5399    0.6833 H   0  0  0  0  0  0  0  0  0  0  0  0
   -4.7311   -1.0130    0.9052 H   0  0  0  0  0  0  0  0  0  0  0  0
   -2.4302   -1.0585    1.0117 H   0  0  0  0  0  0  0  0  0  0  0  0
   -2.0530   -0.2332    2.5288 H   0  0  0  0  0  0  0  0  0  0  0  0
   -1.5387    0.9449   -0.2637 H   0  0  0  0  0  0  0  0  0  0  0  0
   -0.7997    1.7701    2.3643 H   0  0  0  0  0  0  0  0  0  0  0  0
   -0.2057   -1.0696    0.0533 H   0  0  0  0  0  0  0  0  0  0  0  0
    0.9037    0.2975    2.5846 H   0  0  0  0  0  0  0  0  0  0  0  0
    0.0450   -1.2663    2.4736 H   0  0  0  0  0  0  0  0  0  0  0  0
    1.1359   -3.0752    0.8565 H   0  0  0  0  0  0  0  0  0  0  0  0
    3.2711   -4.2406    0.4870 H   0  0  0  0  0  0  0  0  0  0  0  0
    6.9949   -2.3008    2.3291 H   0  0  0  0  0  0  0  0  0  0  0  0
    7.4740   -3.9505    1.9095 H   0  0  0  0  0  0  0  0  0  0  0  0
    7.9247   -3.3638   -0.4422 H   0  0  0  0  0  0  0  0  0  0  0  0
    8.8722   -2.3725    0.7020 H   0  0  0  0  0  0  0  0  0  0  0  0
    8.1987   -0.6883   -0.7241 H   0  0  0  0  0  0  0  0  0  0  0  0
    6.8670   -0.6093    0.4512 H   0  0  0  0  0  0  0  0  0  0  0  0
    5.7445   -2.4207   -1.2785 H   0  0  0  0  0  0  0  0  0  0  0  0
    6.9357   -1.7232   -2.4131 H   0  0  0  0  0  0  0  0  0  0  0  0
    3.6949   -1.5394   -1.9436 H   0  0  0  0  0  0  0  0  0  0  0  0
    3.4237    1.2627   -1.0307 H   0  0  0  0  0  0  0  0  0  0  0  0
    4.0125    1.6827   -3.3847 H   0  0  0  0  0  0  0  0  0  0  0  0
    1.0203    2.2224   -2.8861 H   0  0  0  0  0  0  0  0  0  0  0  0
    2.3991    3.1895   -2.2313 H   0  0  0  0  0  0  0  0  0  0  0  0
    2.1193    3.1125   -4.0063 H   0  0  0  0  0  0  0  0  0  0  0  0
    1.5135    0.0947   -4.2452 H   0  0  0  0  0  0  0  0  0  0  0  0
    2.6910    0.9630   -5.2881 H   0  0  0  0  0  0  0  0  0  0  0  0
    3.2175   -0.4973   -4.3876 H   0  0  0  0  0  0  0  0  0  0  0  0
    1.4333    1.5049    0.1694 H   0  0  0  0  0  0  0  0  0  0  0  0
    5.3738   -0.8708    2.1779 H   0  0  0  0  0  0  0  0  0  0  0  0
    3.2701    0.2885    2.5014 H   0  0  0  0  0  0  0  0  0  0  0  0
   -4.5666    3.4300    1.2349 H   0  0  0  0  0  0  0  0  0  0  0  0
   -6.4210    5.0472    0.9956 H   0  0  0  0  0  0  0  0  0  0  0  0
   -8.4580    4.8225    2.3920 H   0  0  0  0  0  0  0  0  0  0  0  0
   -8.6374    2.9746    4.0357 H   0  0  0  0  0  0  0  0  0  0  0  0
   -6.7930    1.3517    4.2866 H   0  0  0  0  0  0  0  0  0  0  0  0
  1  2  1  0
  2  3  1  0
  2  4  1  0
  4  5  1  0
  5  6  1  0
  6  7  1  0
  7  8  1  0
  8  9  1  0
  8 10  1  0
 10 11  1  0
 11 12  1  0
 12 13  2  0
 13 14  1  0
 14 15  2  0
 15 16  1  0
 16 17  1  0
 17 18  1  0
 18 19  1  0
 19 20  1  0
 20 21  1  0
 21 22  2  0
 21 23  1  0
 23 24  1  0
 24 25  1  0
 25 26  1  0
 25 27  1  0
 24 28  1  0
 28 29  2  0
 28 30  1  0
 15 31  1  0
 31 32  2  0
  6 33  1  0
 33 34  2  0
 33 35  2  0
 33 36  1  0
 36 37  2  0
 37 38  1  0
 38 39  2  0
 39 40  1  0
 40 41  2  0
 30 10  1  0
 32 12  1  0
 41 36  1  0
  1 42  1  0
  1 43  1  0
  1 44  1  0
  2 45  1  0
  3 46  1  0
  3 47  1  0
  3 48  1  0
  4 49  1  0
  4 50  1  0
  5 51  1  0
  5 52  1  0
  7 53  1  0
  7 54  1  0
  8 55  1  6
  9 56  1  0
 10 57  1  6
 11 58  1  0
 11 59  1  0
 13 60  1  0
 14 61  1  0
 17 62  1  0
 17 63  1  0
 18 64  1  0
 18 65  1  0
 19 66  1  0
 19 67  1  0
 20 68  1  0
 20 69  1  0
 23 70  1  0
 24 71  1  1
 25 72  1  0
 26 73  1  0
 26 74  1  0
 26 75  1  0
 27 76  1  0
 27 77  1  0
 27 78  1  0
 30 79  1  0
 31 80  1  0
 32 81  1  0
 37 82  1  0
 38 83  1  0
 39 84  1  0
 40 85  1  0
 41 86  1  0
M  END
$$$$
