
     RDKit          3D

 86 88  0  0  0  0  0  0  0  0999 V2000
    7.1412    0.5681    0.4675 C   0  0  0  0  0  0  0  0  0  0  0  0
    6.0677    1.5827    0.8852 C   0  0  0  0  0  0  0  0  0  0  0  0
    5.5973    2.4077   -0.3203 C   0  0  0  0  0  0  0  0  0  0  0  0
    4.8997    0.9357    1.6747 C   0  0  0  0  0  0  0  0  0  0  0  0
    4.1811   -0.2365    0.9782 C   0  0  0  0  0  0  0  0  0  0  0  0
    3.4910    0.1811   -0.2572 N   0  0  0  0  0  0  0  0  0  0  0  0
    2.2547    0.9740   -0.0628 C   0  0  0  0  0  0  0  0  0  0  0  0
    1.1512    0.2703    0.7711 C   0  0  1  0  0  0  0  0  0  0  0  0
    1.3688    0.5223    2.1383 O   0  0  0  0  0  0  0  0  0  0  0  0
   -0.2669    0.7426    0.3622 C   0  0  2  0  0  0  0  0  0  0  0  0
   -0.5067    2.2407    0.6646 C   0  0  0  0  0  0  0  0  0  0  0  0
   -1.9159    2.6635    0.3246 C   0  0  0  0  0  0  0  0  0  0  0  0
   -2.7923    3.0962    1.3327 C   0  0  0  0  0  0  0  0  0  0  0  0
   -4.1136    3.4313    1.0234 C   0  0  0  0  0  0  0  0  0  0  0  0
   -4.5916    3.2975   -0.2850 C   0  0  0  0  0  0  0  0  0  0  0  0
   -5.9553    3.5245   -0.5280 O   0  0  0  0  0  0  0  0  0  0  0  0
   -6.7562    2.7502   -1.4277 C   0  0  0  0  0  0  0  0  0  0  0  0
   -7.3060    1.4852   -0.7483 C   0  0  0  0  0  0  0  0  0  0  0  0
   -6.1964    0.6086   -0.1542 C   0  0  0  0  0  0  0  0  0  0  0  0
   -6.7189   -0.7516    0.3163 C   0  0  0  0  0  0  0  0  0  0  0  0
   -5.6484   -1.4451    1.1046 C   0  0  0  0  0  0  0  0  0  0  0  0
   -5.7675   -1.5586    2.3546 O   0  0  0  0  0  0  0  0  0  0  0  0
   -4.4584   -1.8990    0.4481 N   0  0  0  0  0  0  0  0  0  0  0  0
   -3.1398   -1.8258    1.0914 C   0  0  1  0  0  0  0  0  0  0  0  0
   -2.4929   -3.2291    1.2281 C   0  0  0  0  0  0  0  0  0  0  0  0
   -2.2919   -3.9423   -0.1196 C   0  0  0  0  0  0  0  0  0  0  0  0
   -3.3114   -4.1163    2.1764 C   0  0  0  0  0  0  0  0  0  0  0  0
   -2.2439   -0.8723    0.3365 C   0  0  0  0  0  0  0  0  0  0  0  0
   -2.3271   -0.7979   -0.9205 O   0  0  0  0  0  0  0  0  0  0  0  0
   -1.2746   -0.0813    1.0435 N   0  0  0  0  0  0  0  0  0  0  0  0
   -3.7022    2.9157   -1.3052 C   0  0  0  0  0  0  0  0  0  0  0  0
   -2.3728    2.6099   -1.0021 C   0  0  0  0  0  0  0  0  0  0  0  0
    3.2579   -1.1769   -1.3351 S   0  0  0  0  0  0  0  0  0  0  0  0
    2.8158   -2.3911   -0.5646 O   0  0  0  0  0  0  0  0  0  0  0  0
    2.2215   -0.8639   -2.3789 O   0  0  0  0  0  0  0  0  0  0  0  0
    4.7897   -1.5039   -2.1371 C   0  0  0  0  0  0  0  0  0  0  0  0
    5.5652   -2.6160   -1.7761 C   0  0  0  0  0  0  0  0  0  0  0  0
    6.8027   -2.8367   -2.3888 C   0  0  0  0  0  0  0  0  0  0  0  0
    7.2725   -1.9472   -3.3595 C   0  0  0  0  0  0  0  0  0  0  0  0
    6.5053   -0.8352   -3.7182 C   0  0  0  0  0  0  0  0  0  0  0  0
    5.2673   -0.6125   -3.1079 C   0  0  0  0  0  0  0  0  0  0  0  0
    8.0410    1.1029    0.0955 H   0  0  0  0  0  0  0  0  0  0  0  0
    6.7736   -0.0931   -0.3447 H   0  0  0  0  0  0  0  0  0  0  0  0
    7.4426   -0.0548    1.3363 H   0  0  0  0  0  0  0  0  0  0  0  0
    6.5557    2.2971    1.5853 H   0  0  0  0  0  0  0  0  0  0  0  0
    6.4366    3.0300   -0.6977 H   0  0  0  0  0  0  0  0  0  0  0  0
    4.7707    3.0887   -0.0271 H   0  0  0  0  0  0  0  0  0  0  0  0
    5.2598    1.7564   -1.1517 H   0  0  0  0  0  0  0  0  0  0  0  0
    5.3123    0.5477    2.6318 H   0  0  0  0  0  0  0  0  0  0  0  0
    4.1657    1.7168    1.9629 H   0  0  0  0  0  0  0  0  0  0  0  0
    3.4757   -0.7147    1.6871 H   0  0  0  0  0  0  0  0  0  0  0  0
    4.9371   -1.0181    0.7534 H   0  0  0  0  0  0  0  0  0  0  0  0
    2.5087    1.9450    0.4107 H   0  0  0  0  0  0  0  0  0  0  0  0
    1.8616    1.2545   -1.0634 H   0  0  0  0  0  0  0  0  0  0  0  0
    1.1953   -0.8237    0.5732 H   0  0  0  0  0  0  0  0  0  0  0  0
    1.0548   -0.2749    2.6396 H   0  0  0  0  0  0  0  0  0  0  0  0
   -0.3507    0.5984   -0.7370 H   0  0  0  0  0  0  0  0  0  0  0  0
    0.1946    2.8619    0.0676 H   0  0  0  0  0  0  0  0  0  0  0  0
   -0.2933    2.4446    1.7364 H   0  0  0  0  0  0  0  0  0  0  0  0
   -2.4602    3.1585    2.3615 H   0  0  0  0  0  0  0  0  0  0  0  0
   -4.7857    3.7394    1.8142 H   0  0  0  0  0  0  0  0  0  0  0  0
   -7.6193    3.3727   -1.7443 H   0  0  0  0  0  0  0  0  0  0  0  0
   -6.2013    2.4808   -2.3487 H   0  0  0  0  0  0  0  0  0  0  0  0
   -8.0096    1.7827    0.0597 H   0  0  0  0  0  0  0  0  0  0  0  0
   -7.8762    0.9017   -1.5038 H   0  0  0  0  0  0  0  0  0  0  0  0
   -5.3977    0.4489   -0.9121 H   0  0  0  0  0  0  0  0  0  0  0  0
   -5.7603    1.1334    0.7224 H   0  0  0  0  0  0  0  0  0  0  0  0
   -6.9985   -1.3747   -0.5603 H   0  0  0  0  0  0  0  0  0  0  0  0
   -7.6212   -0.6139    0.9521 H   0  0  0  0  0  0  0  0  0  0  0  0
   -4.5158   -2.1172   -0.5724 H   0  0  0  0  0  0  0  0  0  0  0  0
   -3.2561   -1.4118    2.1179 H   0  0  0  0  0  0  0  0  0  0  0  0
   -1.4882   -3.0974    1.6895 H   0  0  0  0  0  0  0  0  0  0  0  0
   -1.7807   -4.9155    0.0408 H   0  0  0  0  0  0  0  0  0  0  0  0
   -1.6507   -3.3378   -0.7935 H   0  0  0  0  0  0  0  0  0  0  0  0
   -3.2641   -4.1388   -0.6182 H   0  0  0  0  0  0  0  0  0  0  0  0
   -3.4226   -3.6231    3.1656 H   0  0  0  0  0  0  0  0  0  0  0  0
   -2.7951   -5.0874    2.3339 H   0  0  0  0  0  0  0  0  0  0  0  0
   -4.3216   -4.3141    1.7583 H   0  0  0  0  0  0  0  0  0  0  0  0
   -1.2963   -0.0803    2.0883 H   0  0  0  0  0  0  0  0  0  0  0  0
   -4.0249    2.8549   -2.3344 H   0  0  0  0  0  0  0  0  0  0  0  0
   -1.7055    2.3083   -1.7997 H   0  0  0  0  0  0  0  0  0  0  0  0
    5.2208   -3.3051   -1.0161 H   0  0  0  0  0  0  0  0  0  0  0  0
    7.3999   -3.6944   -2.1075 H   0  0  0  0  0  0  0  0  0  0  0  0
    8.2317   -2.1177   -3.8309 H   0  0  0  0  0  0  0  0  0  0  0  0
    6.8718   -0.1437   -4.4658 H   0  0  0  0  0  0  0  0  0  0  0  0
    4.6858    0.2582   -3.3838 H   0  0  0  0  0  0  0  0  0  0  0  0
  1  2  1  0
  2  3  1  0
  2  4  1  0
  4  5  1  0
  5  6  1  0
  6  7  1  0
  7  8  1  0
  8  9  1  0
  8 10  1  0
 10 11  1  0
 11 12  1  0
 12 13  2  0
 13 14  1  0
 14 15  2  0
 15 16  1  0
 16 17  1  0
 17 18  1  0
 18 19  1  0
 19 20  1  0
 20 21  1  0
 21 22  2  0
 21 23  1  0
 23 24  1  0
 24 25  1  0
 25 26  1  0
 25 27  1  0
 24 28  1  0
 28 29  2  0
 28 30  1  0
 15 31  1  0
 31 32  2  0
  6 33  1  0
 33 34  2  0
 33 35  2  0
 33 36  1  0
 36 37  2  0
 37 38  1  0
 38 39  2  0
 39 40  1  0
 40 41  2  0
 30 10  1  0
 32 12  1  0
 41 36  1  0
  1 42  1  0
  1 43  1  0
  1 44  1  0
  2 45  1  0
  3 46  1  0
  3 47  1  0
  3 48  1  0
  4 49  1  0
  4 50  1  0
  5 51  1  0
  5 52  1  0
  7 53  1  0
  7 54  1  0
  8 55  1  1
  9 56  1  0
 10 57  1  6
 11 58  1  0
 11 59  1  0
 13 60  1  0
 14 61  1  0
 17 62  1  0
 17 63  1  0
 18 64  1  0
 18 65  1  0
 19 66  1  0
 19 67  1  0
 20 68  1  0
 20 69  1  0
 23 70  1  0
 24 71  1  1
 25 72  1  0
 26 73  1  0
 26 74  1  0
 26 75  1  0
 27 76  1  0
 27 77  1  0
 27 78  1  0
 30 79  1  0
 31 80  1  0
 32 81  1  0
 37 82  1  0
 38 83  1  0
 39 84  1  0
 40 85  1  0
 41 86  1  0
M  END
$$$$
