
     RDKit          3D

 74 77  0  0  0  0  0  0  0  0999 V2000
    8.7783    2.3451   -1.6345 C   0  0  0  0  0  0  0  0  0  0  0  0
    7.5332    2.8976   -2.0490 O   0  0  0  0  0  0  0  0  0  0  0  0
    6.3049    2.6395   -1.4226 C   0  0  0  0  0  0  0  0  0  0  0  0
    5.1545    3.2498   -1.9365 C   0  0  0  0  0  0  0  0  0  0  0  0
    3.9070    3.0236   -1.3480 C   0  0  0  0  0  0  0  0  0  0  0  0
    3.7957    2.1818   -0.2334 C   0  0  0  0  0  0  0  0  0  0  0  0
    2.2237    1.8766    0.5062 S   0  0  0  0  0  0  0  0  0  0  0  0
    1.2673    2.9763    0.1391 O   0  0  0  0  0  0  0  0  0  0  0  0
    2.3847    1.8812    2.0003 O   0  0  0  0  0  0  0  0  0  0  0  0
    1.5971    0.3275    0.0024 N   0  0  0  0  0  0  0  0  0  0  0  0
    1.3131    0.3072   -1.4459 C   0  0  0  0  0  0  0  0  0  0  0  0
   -0.1448    0.7362   -1.7402 C   0  0  1  0  0  0  0  0  0  0  0  0
   -0.3795    0.8094   -3.1262 O   0  0  0  0  0  0  0  0  0  0  0  0
   -1.2200   -0.1342   -1.0309 C   0  0  2  0  0  0  0  0  0  0  0  0
   -1.3579   -1.5534   -1.6272 C   0  0  0  0  0  0  0  0  0  0  0  0
   -2.3725   -2.3711   -0.8650 C   0  0  0  0  0  0  0  0  0  0  0  0
   -2.0249   -2.9845    0.3509 C   0  0  0  0  0  0  0  0  0  0  0  0
   -2.9824   -3.6927    1.0829 C   0  0  0  0  0  0  0  0  0  0  0  0
   -4.2944   -3.7887    0.6120 C   0  0  0  0  0  0  0  0  0  0  0  0
   -4.6513   -3.1758   -0.5918 C   0  0  0  0  0  0  0  0  0  0  0  0
   -3.6965   -2.4680   -1.3280 C   0  0  0  0  0  0  0  0  0  0  0  0
   -2.5145    0.5547   -1.1009 N   0  0  0  0  0  0  0  0  0  0  0  0
   -3.4027    0.6667    0.0180 C   0  0  0  0  0  0  0  0  0  0  0  0
   -3.0333    0.3007    1.1679 O   0  0  0  0  0  0  0  0  0  0  0  0
   -4.6910    1.1720   -0.1835 O   0  0  0  0  0  0  0  0  0  0  0  0
   -5.6543    1.2971    0.8641 C   0  0  0  0  0  0  0  0  0  0  0  0
   -6.9953    1.6222    0.2808 C   0  0  0  0  0  0  0  0  0  0  0  0
   -7.0066    3.1367    0.2714 C   0  0  0  0  0  0  0  0  0  0  0  0
   -6.1005    3.6182    1.2375 O   0  0  0  0  0  0  0  0  0  0  0  0
   -5.3652    2.5179    1.7231 C   0  0  0  0  0  0  0  0  0  0  0  0
    2.5748   -0.5862    0.2603 O   0  0  0  0  0  0  0  0  0  0  0  0
    1.9527   -1.6922    0.8754 C   0  0  0  0  0  0  0  0  0  0  0  0
    1.5232   -1.3965    2.3068 C   0  0  0  0  0  0  0  0  0  0  0  0
    1.5377   -2.7425    3.0173 C   0  0  0  0  0  0  0  0  0  0  0  0
    2.4576   -3.6545    2.2060 C   0  0  0  0  0  0  0  0  0  0  0  0
    2.9334   -2.8443    1.0055 C   0  0  0  0  0  0  0  0  0  0  0  0
    4.9427    1.5671    0.2848 C   0  0  0  0  0  0  0  0  0  0  0  0
    6.1909    1.7926   -0.3031 C   0  0  0  0  0  0  0  0  0  0  0  0
    9.0089    2.6606   -0.5950 H   0  0  0  0  0  0  0  0  0  0  0  0
    9.5806    2.7161   -2.3046 H   0  0  0  0  0  0  0  0  0  0  0  0
    8.7448    1.2370   -1.6994 H   0  0  0  0  0  0  0  0  0  0  0  0
    5.2281    3.9012   -2.7981 H   0  0  0  0  0  0  0  0  0  0  0  0
    3.0299    3.5002   -1.7664 H   0  0  0  0  0  0  0  0  0  0  0  0
    2.0121    0.9655   -2.0055 H   0  0  0  0  0  0  0  0  0  0  0  0
    1.4708   -0.7160   -1.8519 H   0  0  0  0  0  0  0  0  0  0  0  0
   -0.2644    1.7670   -1.3507 H   0  0  0  0  0  0  0  0  0  0  0  0
   -0.0499   -0.0297   -3.5408 H   0  0  0  0  0  0  0  0  0  0  0  0
   -0.9160   -0.2375    0.0334 H   0  0  0  0  0  0  0  0  0  0  0  0
   -0.3824   -2.0805   -1.6021 H   0  0  0  0  0  0  0  0  0  0  0  0
   -1.6631   -1.4897   -2.6940 H   0  0  0  0  0  0  0  0  0  0  0  0
   -1.0188   -2.9090    0.7376 H   0  0  0  0  0  0  0  0  0  0  0  0
   -2.7082   -4.1625    2.0187 H   0  0  0  0  0  0  0  0  0  0  0  0
   -5.0353   -4.3344    1.1818 H   0  0  0  0  0  0  0  0  0  0  0  0
   -5.6696   -3.2444   -0.9521 H   0  0  0  0  0  0  0  0  0  0  0  0
   -3.9919   -1.9851   -2.2513 H   0  0  0  0  0  0  0  0  0  0  0  0
   -2.8752    0.8467   -2.0374 H   0  0  0  0  0  0  0  0  0  0  0  0
   -5.6996    0.3609    1.4653 H   0  0  0  0  0  0  0  0  0  0  0  0
   -7.8001    1.2437    0.9498 H   0  0  0  0  0  0  0  0  0  0  0  0
   -7.1294    1.1987   -0.7388 H   0  0  0  0  0  0  0  0  0  0  0  0
   -8.0266    3.5186    0.4903 H   0  0  0  0  0  0  0  0  0  0  0  0
   -6.6956    3.5099   -0.7286 H   0  0  0  0  0  0  0  0  0  0  0  0
   -4.2826    2.7658    1.7255 H   0  0  0  0  0  0  0  0  0  0  0  0
   -5.6759    2.3174    2.7715 H   0  0  0  0  0  0  0  0  0  0  0  0
    1.0826   -2.0464    0.2803 H   0  0  0  0  0  0  0  0  0  0  0  0
    2.2587   -0.7171    2.7914 H   0  0  0  0  0  0  0  0  0  0  0  0
    0.5135   -0.9320    2.3373 H   0  0  0  0  0  0  0  0  0  0  0  0
    0.5094   -3.1666    3.0398 H   0  0  0  0  0  0  0  0  0  0  0  0
    1.9035   -2.6313    4.0613 H   0  0  0  0  0  0  0  0  0  0  0  0
    3.3235   -3.9903    2.8174 H   0  0  0  0  0  0  0  0  0  0  0  0
    1.8943   -4.5491    1.8601 H   0  0  0  0  0  0  0  0  0  0  0  0
    2.9542   -3.4615    0.0809 H   0  0  0  0  0  0  0  0  0  0  0  0
    3.9563   -2.4531    1.2055 H   0  0  0  0  0  0  0  0  0  0  0  0
    4.8703    0.9099    1.1424 H   0  0  0  0  0  0  0  0  0  0  0  0
    7.0584    1.3038    0.1185 H   0  0  0  0  0  0  0  0  0  0  0  0
  1  2  1  0
  2  3  1  0
  3  4  2  0
  4  5  1  0
  5  6  2  0
  6  7  1  0
  7  8  2  0
  7  9  2  0
  7 10  1  0
 10 11  1  0
 11 12  1  0
 12 13  1  0
 12 14  1  0
 14 15  1  0
 15 16  1  0
 16 17  2  0
 17 18  1  0
 18 19  2  0
 19 20  1  0
 20 21  2  0
 14 22  1  0
 22 23  1  0
 23 24  2  0
 23 25  1  0
 25 26  1  0
 26 27  1  0
 27 28  1  0
 28 29  1  0
 29 30  1  0
 10 31  1  0
 31 32  1  0
 32 33  1  0
 33 34  1  0
 34 35  1  0
 35 36  1  0
  6 37  1  0
 37 38  2  0
 21 16  1  0
 30 26  1  0
 36 32  1  0
 38  3  1  0
  1 39  1  0
  1 40  1  0
  1 41  1  0
  4 42  1  0
  5 43  1  0
 11 44  1  0
 11 45  1  0
 12 46  1  1
 13 47  1  0
 14 48  1  1
 15 49  1  0
 15 50  1  0
 17 51  1  0
 18 52  1  0
 19 53  1  0
 20 54  1  0
 21 55  1  0
 22 56  1  0
 26 57  1  0
 27 58  1  0
 27 59  1  0
 28 60  1  0
 28 61  1  0
 30 62  1  0
 30 63  1  0
 32 64  1  0
 33 65  1  0
 33 66  1  0
 34 67  1  0
 34 68  1  0
 35 69  1  0
 35 70  1  0
 36 71  1  0
 36 72  1  0
 37 73  1  0
 38 74  1  0
M  END
$$$$
