
     RDKit          3D

 86 88  0  0  0  0  0  0  0  0999 V2000
   -4.5472    2.0681    3.3769 C   0  0  0  0  0  0  0  0  0  0  0  0
   -4.5448    0.7304    2.6256 C   0  0  0  0  0  0  0  0  0  0  0  0
   -3.9594   -0.3687    3.5260 C   0  0  0  0  0  0  0  0  0  0  0  0
   -3.7566    0.8701    1.3046 C   0  0  0  0  0  0  0  0  0  0  0  0
   -3.9489   -0.3268    0.3603 C   0  0  0  0  0  0  0  0  0  0  0  0
   -3.2246   -0.0902   -0.9044 N   0  0  0  0  0  0  0  0  0  0  0  0
   -1.7957   -0.4640   -0.8034 C   0  0  0  0  0  0  0  0  0  0  0  0
   -0.9323    0.5848   -1.5302 C   0  0  1  0  0  0  0  0  0  0  0  0
   -1.0918    1.8188   -0.8767 O   0  0  0  0  0  0  0  0  0  0  0  0
    0.5750    0.2192   -1.5792 C   0  0  2  0  0  0  0  0  0  0  0  0
    0.8826   -0.9109   -2.5883 C   0  0  0  0  0  0  0  0  0  0  0  0
    2.3477   -1.2798   -2.5737 C   0  0  0  0  0  0  0  0  0  0  0  0
    2.7608   -2.5334   -2.0939 C   0  0  0  0  0  0  0  0  0  0  0  0
    4.1212   -2.8397   -1.9988 C   0  0  0  0  0  0  0  0  0  0  0  0
    5.0885   -1.8873   -2.3382 C   0  0  0  0  0  0  0  0  0  0  0  0
    6.4399   -2.1951   -2.1141 O   0  0  0  0  0  0  0  0  0  0  0  0
    7.4197   -1.2587   -1.6521 C   0  0  0  0  0  0  0  0  0  0  0  0
    7.4213   -1.1529   -0.1183 C   0  0  0  0  0  0  0  0  0  0  0  0
    6.0421   -0.7915    0.4480 C   0  0  0  0  0  0  0  0  0  0  0  0
    6.1004   -0.4415    1.9389 C   0  0  0  0  0  0  0  0  0  0  0  0
    4.7075   -0.3629    2.4913 C   0  0  0  0  0  0  0  0  0  0  0  0
    4.3320   -1.1938    3.3620 O   0  0  0  0  0  0  0  0  0  0  0  0
    3.7885    0.6098    1.9778 N   0  0  0  0  0  0  0  0  0  0  0  0
    2.3442    0.3595    1.9208 C   0  0  1  0  0  0  0  0  0  0  0  0
    1.6187    1.0131    3.1273 C   0  0  0  0  0  0  0  0  0  0  0  0
    0.1229    0.6645    3.1363 C   0  0  0  0  0  0  0  0  0  0  0  0
    1.8112    2.5362    3.2078 C   0  0  0  0  0  0  0  0  0  0  0  0
    1.8006    0.7994    0.5800 C   0  0  0  0  0  0  0  0  0  0  0  0
    2.0025    1.9777    0.1777 O   0  0  0  0  0  0  0  0  0  0  0  0
    1.0753   -0.1279   -0.2429 N   0  0  0  0  0  0  0  0  0  0  0  0
    4.6777   -0.6505   -2.8674 C   0  0  0  0  0  0  0  0  0  0  0  0
    3.3174   -0.3532   -2.9888 C   0  0  0  0  0  0  0  0  0  0  0  0
   -3.9979   -0.9692   -2.2057 S   0  0  0  0  0  0  0  0  0  0  0  0
   -4.1779   -2.4064   -1.7989 O   0  0  0  0  0  0  0  0  0  0  0  0
   -3.1570   -0.9102   -3.4502 O   0  0  0  0  0  0  0  0  0  0  0  0
   -5.5647   -0.2449   -2.5524 C   0  0  0  0  0  0  0  0  0  0  0  0
   -5.7369    1.1414   -2.4300 C   0  0  0  0  0  0  0  0  0  0  0  0
   -6.9800    1.7213   -2.7011 C   0  0  0  0  0  0  0  0  0  0  0  0
   -8.0541    0.9203   -3.0999 C   0  0  0  0  0  0  0  0  0  0  0  0
   -7.8853   -0.4614   -3.2296 C   0  0  0  0  0  0  0  0  0  0  0  0
   -6.6433   -1.0443   -2.9582 C   0  0  0  0  0  0  0  0  0  0  0  0
   -5.1374    1.9828    4.3143 H   0  0  0  0  0  0  0  0  0  0  0  0
   -5.0130    2.8597    2.7519 H   0  0  0  0  0  0  0  0  0  0  0  0
   -3.5098    2.3756    3.6319 H   0  0  0  0  0  0  0  0  0  0  0  0
   -5.6018    0.4716    2.3939 H   0  0  0  0  0  0  0  0  0  0  0  0
   -2.8795   -0.1885    3.7155 H   0  0  0  0  0  0  0  0  0  0  0  0
   -4.0844   -1.3674    3.0606 H   0  0  0  0  0  0  0  0  0  0  0  0
   -4.4924   -0.3913    4.5005 H   0  0  0  0  0  0  0  0  0  0  0  0
   -2.6799    1.0146    1.5295 H   0  0  0  0  0  0  0  0  0  0  0  0
   -4.1053    1.7798    0.7669 H   0  0  0  0  0  0  0  0  0  0  0  0
   -3.6096   -1.2744    0.8328 H   0  0  0  0  0  0  0  0  0  0  0  0
   -5.0412   -0.4256    0.1733 H   0  0  0  0  0  0  0  0  0  0  0  0
   -1.4643   -0.5021    0.2579 H   0  0  0  0  0  0  0  0  0  0  0  0
   -1.6191   -1.4817   -1.2104 H   0  0  0  0  0  0  0  0  0  0  0  0
   -1.3041    0.6778   -2.5768 H   0  0  0  0  0  0  0  0  0  0  0  0
   -0.8307    2.5262   -1.5228 H   0  0  0  0  0  0  0  0  0  0  0  0
    1.1117    1.1187   -1.9537 H   0  0  0  0  0  0  0  0  0  0  0  0
    0.2675   -1.8071   -2.3667 H   0  0  0  0  0  0  0  0  0  0  0  0
    0.6092   -0.5750   -3.6122 H   0  0  0  0  0  0  0  0  0  0  0  0
    2.0321   -3.2669   -1.7723 H   0  0  0  0  0  0  0  0  0  0  0  0
    4.4259   -3.8005   -1.6037 H   0  0  0  0  0  0  0  0  0  0  0  0
    7.2826   -0.2569   -2.1059 H   0  0  0  0  0  0  0  0  0  0  0  0
    8.4196   -1.6200   -1.9721 H   0  0  0  0  0  0  0  0  0  0  0  0
    7.7508   -2.1233    0.3132 H   0  0  0  0  0  0  0  0  0  0  0  0
    8.1600   -0.3763    0.1775 H   0  0  0  0  0  0  0  0  0  0  0  0
    5.6233    0.0736   -0.1120 H   0  0  0  0  0  0  0  0  0  0  0  0
    5.3653   -1.6635    0.3191 H   0  0  0  0  0  0  0  0  0  0  0  0
    6.6761   -1.2187    2.4885 H   0  0  0  0  0  0  0  0  0  0  0  0
    6.6089    0.5365    2.0785 H   0  0  0  0  0  0  0  0  0  0  0  0
    4.1808    1.4628    1.5177 H   0  0  0  0  0  0  0  0  0  0  0  0
    2.1801   -0.7388    1.9985 H   0  0  0  0  0  0  0  0  0  0  0  0
    2.0607    0.5783    4.0515 H   0  0  0  0  0  0  0  0  0  0  0  0
   -0.0183   -0.4369    3.1029 H   0  0  0  0  0  0  0  0  0  0  0  0
   -0.3895    1.1181    2.2624 H   0  0  0  0  0  0  0  0  0  0  0  0
   -0.3546    1.0463    4.0638 H   0  0  0  0  0  0  0  0  0  0  0  0
    2.8894    2.7988    3.1926 H   0  0  0  0  0  0  0  0  0  0  0  0
    1.3846    2.9181    4.1598 H   0  0  0  0  0  0  0  0  0  0  0  0
    1.2971    3.0520    2.3706 H   0  0  0  0  0  0  0  0  0  0  0  0
    0.8699   -1.0818    0.1323 H   0  0  0  0  0  0  0  0  0  0  0  0
    5.3976    0.0878   -3.1890 H   0  0  0  0  0  0  0  0  0  0  0  0
    3.0206    0.6106   -3.3829 H   0  0  0  0  0  0  0  0  0  0  0  0
   -4.9112    1.7714   -2.1238 H   0  0  0  0  0  0  0  0  0  0  0  0
   -7.1105    2.7912   -2.6028 H   0  0  0  0  0  0  0  0  0  0  0  0
   -9.0158    1.3701   -3.3099 H   0  0  0  0  0  0  0  0  0  0  0  0
   -8.7167   -1.0806   -3.5410 H   0  0  0  0  0  0  0  0  0  0  0  0
   -6.5243   -2.1148   -3.0651 H   0  0  0  0  0  0  0  0  0  0  0  0
  1  2  1  0
  2  3  1  0
  2  4  1  0
  4  5  1  0
  5  6  1  0
  6  7  1  0
  7  8  1  0
  8  9  1  0
  8 10  1  0
 10 11  1  0
 11 12  1  0
 12 13  2  0
 13 14  1  0
 14 15  2  0
 15 16  1  0
 16 17  1  0
 17 18  1  0
 18 19  1  0
 19 20  1  0
 20 21  1  0
 21 22  2  0
 21 23  1  0
 23 24  1  0
 24 25  1  0
 25 26  1  0
 25 27  1  0
 24 28  1  0
 28 29  2  0
 28 30  1  0
 15 31  1  0
 31 32  2  0
  6 33  1  0
 33 34  2  0
 33 35  2  0
 33 36  1  0
 36 37  2  0
 37 38  1  0
 38 39  2  0
 39 40  1  0
 40 41  2  0
 30 10  1  0
 32 12  1  0
 41 36  1  0
  1 42  1  0
  1 43  1  0
  1 44  1  0
  2 45  1  0
  3 46  1  0
  3 47  1  0
  3 48  1  0
  4 49  1  0
  4 50  1  0
  5 51  1  0
  5 52  1  0
  7 53  1  0
  7 54  1  0
  8 55  1  6
  9 56  1  0
 10 57  1  6
 11 58  1  0
 11 59  1  0
 13 60  1  0
 14 61  1  0
 17 62  1  0
 17 63  1  0
 18 64  1  0
 18 65  1  0
 19 66  1  0
 19 67  1  0
 20 68  1  0
 20 69  1  0
 23 70  1  0
 24 71  1  1
 25 72  1  0
 26 73  1  0
 26 74  1  0
 26 75  1  0
 27 76  1  0
 27 77  1  0
 27 78  1  0
 30 79  1  0
 31 80  1  0
 32 81  1  0
 37 82  1  0
 38 83  1  0
 39 84  1  0
 40 85  1  0
 41 86  1  0
M  END
$$$$
