
     RDKit          3D

 79 82  0  0  0  0  0  0  0  0999 V2000
    0.1353    0.4169    0.8073 C   0  0  0  0  0  0  0  0  0  0  0  0
    1.6093    0.7711    1.0691 C   0  0  0  0  0  0  0  0  0  0  0  0
    2.0781    0.0540    2.3525 C   0  0  0  0  0  0  0  0  0  0  0  0
    2.5621    0.5700   -0.1772 C   0  0  0  0  0  0  0  0  0  0  0  0
    3.9900    1.0859    0.1884 C   0  0  0  0  0  0  0  0  0  0  0  0
    4.8549    1.4646   -1.0300 C   0  0  0  0  0  0  0  0  0  0  0  0
    6.2492    1.8270   -0.5930 C   0  0  0  0  0  0  0  0  0  0  0  0
    7.2379    0.8351   -0.4874 C   0  0  0  0  0  0  0  0  0  0  0  0
    8.5235    1.1653   -0.0481 C   0  0  0  0  0  0  0  0  0  0  0  0
    8.8304    2.4879    0.2998 C   0  0  0  0  0  0  0  0  0  0  0  0
   10.1078    2.8288    0.7386 O   0  0  0  0  0  0  0  0  0  0  0  0
    7.8446    3.4759    0.2090 C   0  0  0  0  0  0  0  0  0  0  0  0
    6.5581    3.1481   -0.2300 C   0  0  0  0  0  0  0  0  0  0  0  0
    2.6605   -0.9202   -0.6311 C   0  0  0  0  0  0  0  0  0  0  0  0
    1.5328   -1.3295   -1.5299 C   0  0  0  0  0  0  0  0  0  0  0  0
    1.2847   -2.5541   -1.6738 O   0  0  0  0  0  0  0  0  0  0  0  0
    0.8140   -0.3288   -2.3356 C   0  0  0  0  0  0  0  0  0  0  0  0
   -0.4903   -0.8414   -3.4784 S   0  0  0  0  0  0  0  0  0  0  0  0
   -1.8334   -0.5877   -2.2909 C   0  0  0  0  0  0  0  0  0  0  0  0
   -2.2158    0.7507   -2.1172 C   0  0  0  0  0  0  0  0  0  0  0  0
   -3.0597    1.1461   -1.0770 C   0  0  0  0  0  0  0  0  0  0  0  0
   -3.3825    2.6056   -0.9013 C   0  0  0  0  0  0  0  0  0  0  0  0
   -3.5345    0.1814   -0.1755 C   0  0  0  0  0  0  0  0  0  0  0  0
   -4.3045    0.5705    0.9774 N   0  0  0  0  0  0  0  0  0  0  0  0
   -5.4377   -0.1759    1.4517 C   0  0  0  0  0  0  0  0  0  0  0  0
   -6.0266   -0.9765    0.6741 O   0  0  0  0  0  0  0  0  0  0  0  0
   -5.9505    0.0111    2.8301 C   0  0  0  0  0  0  0  0  0  0  0  0
   -7.2597   -0.3773    3.1618 C   0  0  0  0  0  0  0  0  0  0  0  0
   -7.7360   -0.2048    4.4624 C   0  0  0  0  0  0  0  0  0  0  0  0
   -6.8975    0.3488    5.4297 C   0  0  0  0  0  0  0  0  0  0  0  0
   -5.6289    0.7096    5.1036 N   0  0  0  0  0  0  0  0  0  0  0  0
   -5.1408    0.5552    3.8436 C   0  0  0  0  0  0  0  0  0  0  0  0
   -3.2280   -1.1688   -0.3924 C   0  0  0  0  0  0  0  0  0  0  0  0
   -2.4521   -1.6070   -1.4940 C   0  0  0  0  0  0  0  0  0  0  0  0
   -2.4129   -3.1437   -1.7494 C   0  0  0  0  0  0  0  0  0  0  0  0
   -1.7285   -3.5791   -3.0648 C   0  0  0  0  0  0  0  0  0  0  0  0
   -3.8672   -3.6809   -1.8363 C   0  0  0  0  0  0  0  0  0  0  0  0
   -1.6960   -3.8453   -0.5746 C   0  0  0  0  0  0  0  0  0  0  0  0
    1.1709    0.9581   -2.2400 C   0  0  0  0  0  0  0  0  0  0  0  0
    0.6422    1.9007   -3.1154 O   0  0  0  0  0  0  0  0  0  0  0  0
    2.0809    1.3831   -1.2609 O   0  0  0  0  0  0  0  0  0  0  0  0
   -0.2770    1.0377   -0.0109 H   0  0  0  0  0  0  0  0  0  0  0  0
   -0.4765    0.6364    1.7085 H   0  0  0  0  0  0  0  0  0  0  0  0
    0.0121   -0.6594    0.5693 H   0  0  0  0  0  0  0  0  0  0  0  0
    1.6144    1.8596    1.3033 H   0  0  0  0  0  0  0  0  0  0  0  0
    3.1216    0.3199    2.6133 H   0  0  0  0  0  0  0  0  0  0  0  0
    1.9899   -1.0475    2.2616 H   0  0  0  0  0  0  0  0  0  0  0  0
    1.4448    0.3696    3.2093 H   0  0  0  0  0  0  0  0  0  0  0  0
    3.9101    1.9932    0.8277 H   0  0  0  0  0  0  0  0  0  0  0  0
    4.5266    0.3109    0.7800 H   0  0  0  0  0  0  0  0  0  0  0  0
    4.4010    2.3301   -1.5603 H   0  0  0  0  0  0  0  0  0  0  0  0
    4.9041    0.6295   -1.7589 H   0  0  0  0  0  0  0  0  0  0  0  0
    7.0119   -0.1929   -0.7431 H   0  0  0  0  0  0  0  0  0  0  0  0
    9.2786    0.3930    0.0249 H   0  0  0  0  0  0  0  0  0  0  0  0
   10.8433    2.1361    0.8163 H   0  0  0  0  0  0  0  0  0  0  0  0
    8.0747    4.4979    0.4823 H   0  0  0  0  0  0  0  0  0  0  0  0
    5.8029    3.9224   -0.2853 H   0  0  0  0  0  0  0  0  0  0  0  0
    3.5915   -1.0927   -1.2077 H   0  0  0  0  0  0  0  0  0  0  0  0
    2.7125   -1.6060    0.2371 H   0  0  0  0  0  0  0  0  0  0  0  0
   -1.8143    1.5057   -2.7792 H   0  0  0  0  0  0  0  0  0  0  0  0
   -4.4612    2.7364   -0.6724 H   0  0  0  0  0  0  0  0  0  0  0  0
   -3.1638    3.1835   -1.8246 H   0  0  0  0  0  0  0  0  0  0  0  0
   -2.7749    3.0224   -0.0709 H   0  0  0  0  0  0  0  0  0  0  0  0
   -4.0823    1.4797    1.4402 H   0  0  0  0  0  0  0  0  0  0  0  0
   -7.9172   -0.8048    2.4149 H   0  0  0  0  0  0  0  0  0  0  0  0
   -8.7461   -0.4976    4.7181 H   0  0  0  0  0  0  0  0  0  0  0  0
   -7.2533    0.4875    6.4418 H   0  0  0  0  0  0  0  0  0  0  0  0
   -4.1161    0.8388    3.6465 H   0  0  0  0  0  0  0  0  0  0  0  0
   -3.6078   -1.8867    0.3195 H   0  0  0  0  0  0  0  0  0  0  0  0
   -2.1543   -3.0320   -3.9328 H   0  0  0  0  0  0  0  0  0  0  0  0
   -1.8858   -4.6636   -3.2537 H   0  0  0  0  0  0  0  0  0  0  0  0
   -0.6314   -3.4525   -3.0180 H   0  0  0  0  0  0  0  0  0  0  0  0
   -4.4219   -3.5641   -0.8834 H   0  0  0  0  0  0  0  0  0  0  0  0
   -4.4281   -3.1458   -2.6331 H   0  0  0  0  0  0  0  0  0  0  0  0
   -3.8809   -4.7676   -2.0709 H   0  0  0  0  0  0  0  0  0  0  0  0
   -2.2705   -3.7509    0.3702 H   0  0  0  0  0  0  0  0  0  0  0  0
   -0.6957   -3.4013   -0.4047 H   0  0  0  0  0  0  0  0  0  0  0  0
   -1.5702   -4.9310   -0.7783 H   0  0  0  0  0  0  0  0  0  0  0  0
    0.9054    2.8757   -3.0428 H   0  0  0  0  0  0  0  0  0  0  0  0
  1  2  1  0
  2  3  1  0
  2  4  1  0
  4  5  1  0
  5  6  1  0
  6  7  1  0
  7  8  2  0
  8  9  1  0
  9 10  2  0
 10 11  1  0
 10 12  1  0
 12 13  2  0
  4 14  1  0
 14 15  1  0
 15 16  2  0
 15 17  1  0
 17 18  1  0
 18 19  1  0
 19 20  2  0
 20 21  1  0
 21 22  1  0
 21 23  2  0
 23 24  1  0
 24 25  1  0
 25 26  2  0
 25 27  1  0
 27 28  2  0
 28 29  1  0
 29 30  2  0
 30 31  1  0
 31 32  2  0
 23 33  1  0
 33 34  2  0
 34 35  1  0
 35 36  1  0
 35 37  1  0
 35 38  1  0
 17 39  2  0
 39 40  1  0
 39 41  1  0
 13  7  1  0
 32 27  1  0
 34 19  1  0
 41  4  1  0
  1 42  1  0
  1 43  1  0
  1 44  1  0
  2 45  1  0
  3 46  1  0
  3 47  1  0
  3 48  1  0
  5 49  1  0
  5 50  1  0
  6 51  1  0
  6 52  1  0
  8 53  1  0
  9 54  1  0
 11 55  1  0
 12 56  1  0
 13 57  1  0
 14 58  1  0
 14 59  1  0
 20 60  1  0
 22 61  1  0
 22 62  1  0
 22 63  1  0
 24 64  1  0
 28 65  1  0
 29 66  1  0
 30 67  1  0
 32 68  1  0
 33 69  1  0
 36 70  1  0
 36 71  1  0
 36 72  1  0
 37 73  1  0
 37 74  1  0
 37 75  1  0
 38 76  1  0
 38 77  1  0
 38 78  1  0
 40 79  1  0
M  END
$$$$
