
     RDKit          3D

 77 81  0  0  0  0  0  0  0  0999 V2000
    7.3602   -2.5187    1.1784 C   0  0  0  0  0  0  0  0  0  0  0  0
    6.1138   -1.8266    1.7681 C   0  0  0  0  0  0  0  0  0  0  0  0
    5.3473   -2.8511    2.6277 C   0  0  0  0  0  0  0  0  0  0  0  0
    6.5789   -0.6399    2.6347 C   0  0  0  0  0  0  0  0  0  0  0  0
    5.2616   -1.3478    0.6615 N   0  0  0  0  0  0  0  0  0  0  0  0
    4.0262   -0.6236    0.8227 C   0  0  0  0  0  0  0  0  0  0  0  0
    3.5478   -0.4330    1.9714 O   0  0  0  0  0  0  0  0  0  0  0  0
    3.3219   -0.0871   -0.3687 C   0  0  0  0  0  0  0  0  0  0  0  0
    4.0945    0.5379   -1.3652 C   0  0  0  0  0  0  0  0  0  0  0  0
    3.5042    1.0093   -2.5376 C   0  0  0  0  0  0  0  0  0  0  0  0
    2.1371    0.8479   -2.7435 C   0  0  0  0  0  0  0  0  0  0  0  0
    1.3529    0.2287   -1.7712 C   0  0  0  0  0  0  0  0  0  0  0  0
    1.9160   -0.2176   -0.5615 C   0  0  0  0  0  0  0  0  0  0  0  0
    1.0060   -0.8819    0.4572 C   0  0  0  0  0  0  0  0  0  0  0  0
    0.3961    0.0835    1.5145 C   0  0  1  0  0  0  0  0  0  0  0  0
    1.3130    1.0995    1.8376 O   0  0  0  0  0  0  0  0  0  0  0  0
   -0.9845    0.7180    1.1620 C   0  0  2  0  0  0  0  0  0  0  0  0
   -2.0843   -0.3219    0.8275 C   0  0  0  0  0  0  0  0  0  0  0  0
   -2.2610   -0.6549   -0.9650 S   0  0  0  0  0  0  0  0  0  0  0  0
   -3.5231   -1.9060   -0.7326 C   0  0  0  0  0  0  0  0  0  0  0  0
   -4.8741   -1.5422   -0.7219 C   0  0  0  0  0  0  0  0  0  0  0  0
   -5.8632   -2.5126   -0.5401 C   0  0  0  0  0  0  0  0  0  0  0  0
   -5.5067   -3.8590   -0.3696 C   0  0  0  0  0  0  0  0  0  0  0  0
   -6.4905   -4.8428   -0.1851 C   0  0  0  0  0  0  0  0  0  0  0  0
   -6.1216   -6.1806   -0.0161 C   0  0  0  0  0  0  0  0  0  0  0  0
   -4.7727   -6.5458   -0.0299 C   0  0  0  0  0  0  0  0  0  0  0  0
   -3.7826   -5.5760   -0.2128 C   0  0  0  0  0  0  0  0  0  0  0  0
   -4.1390   -4.2293   -0.3837 C   0  0  0  0  0  0  0  0  0  0  0  0
   -3.1551   -3.2461   -0.5676 C   0  0  0  0  0  0  0  0  0  0  0  0
   -0.8708    1.7670    0.1396 N   0  0  0  0  0  0  0  0  0  0  0  0
   -1.9388    2.6813   -0.1535 C   0  0  0  0  0  0  0  0  0  0  0  0
   -3.0082    2.6406    0.5133 O   0  0  0  0  0  0  0  0  0  0  0  0
   -1.8031    3.6434   -1.2706 C   0  0  0  0  0  0  0  0  0  0  0  0
   -1.3112    3.1673   -2.4959 C   0  0  0  0  0  0  0  0  0  0  0  0
   -1.2128    4.0234   -3.5910 C   0  0  0  0  0  0  0  0  0  0  0  0
   -1.5894    5.3215   -3.4789 N   0  0  0  0  0  0  0  0  0  0  0  0
   -2.0595    5.8342   -2.3116 C   0  0  0  0  0  0  0  0  0  0  0  0
   -2.4191    7.1853   -2.2489 C   0  0  0  0  0  0  0  0  0  0  0  0
   -2.8748    7.7355   -1.0501 C   0  0  0  0  0  0  0  0  0  0  0  0
   -2.9645    6.9423    0.0946 C   0  0  0  0  0  0  0  0  0  0  0  0
   -2.6114    5.5905    0.0463 C   0  0  0  0  0  0  0  0  0  0  0  0
   -2.1719    5.0091   -1.1625 C   0  0  0  0  0  0  0  0  0  0  0  0
    8.0295   -2.8892    1.9850 H   0  0  0  0  0  0  0  0  0  0  0  0
    7.0619   -3.3836    0.5471 H   0  0  0  0  0  0  0  0  0  0  0  0
    7.9351   -1.8084    0.5456 H   0  0  0  0  0  0  0  0  0  0  0  0
    4.9458   -3.6657    1.9874 H   0  0  0  0  0  0  0  0  0  0  0  0
    6.0187   -3.3011    3.3908 H   0  0  0  0  0  0  0  0  0  0  0  0
    4.5001   -2.3811    3.1666 H   0  0  0  0  0  0  0  0  0  0  0  0
    7.3034   -0.9793    3.4063 H   0  0  0  0  0  0  0  0  0  0  0  0
    7.0723    0.1283    2.0011 H   0  0  0  0  0  0  0  0  0  0  0  0
    5.7283   -0.1625    3.1622 H   0  0  0  0  0  0  0  0  0  0  0  0
    5.5604   -1.5581   -0.3186 H   0  0  0  0  0  0  0  0  0  0  0  0
    5.1618    0.6681   -1.2330 H   0  0  0  0  0  0  0  0  0  0  0  0
    4.1113    1.4909   -3.2933 H   0  0  0  0  0  0  0  0  0  0  0  0
    1.6828    1.2004   -3.6606 H   0  0  0  0  0  0  0  0  0  0  0  0
    0.2982    0.1007   -1.9648 H   0  0  0  0  0  0  0  0  0  0  0  0
    1.5768   -1.6731    0.9875 H   0  0  0  0  0  0  0  0  0  0  0  0
    0.2134   -1.4520   -0.0635 H   0  0  0  0  0  0  0  0  0  0  0  0
    0.2287   -0.5395    2.4260 H   0  0  0  0  0  0  0  0  0  0  0  0
    1.0548    1.4548    2.7283 H   0  0  0  0  0  0  0  0  0  0  0  0
   -1.3165    1.2175    2.1006 H   0  0  0  0  0  0  0  0  0  0  0  0
   -3.0614    0.0591    1.1952 H   0  0  0  0  0  0  0  0  0  0  0  0
   -1.8855   -1.2727    1.3678 H   0  0  0  0  0  0  0  0  0  0  0  0
   -5.1588   -0.5056   -0.8510 H   0  0  0  0  0  0  0  0  0  0  0  0
   -6.9041   -2.2117   -0.5325 H   0  0  0  0  0  0  0  0  0  0  0  0
   -7.5411   -4.5780   -0.1715 H   0  0  0  0  0  0  0  0  0  0  0  0
   -6.8833   -6.9363    0.1260 H   0  0  0  0  0  0  0  0  0  0  0  0
   -4.4937   -7.5833    0.1016 H   0  0  0  0  0  0  0  0  0  0  0  0
   -2.7419   -5.8774   -0.2205 H   0  0  0  0  0  0  0  0  0  0  0  0
   -2.1054   -3.5161   -0.5788 H   0  0  0  0  0  0  0  0  0  0  0  0
    0.0552    1.9582   -0.2997 H   0  0  0  0  0  0  0  0  0  0  0  0
   -1.0290    2.1288   -2.6140 H   0  0  0  0  0  0  0  0  0  0  0  0
   -0.8430    3.6514   -4.5372 H   0  0  0  0  0  0  0  0  0  0  0  0
   -2.3389    7.8129   -3.1281 H   0  0  0  0  0  0  0  0  0  0  0  0
   -3.1486    8.7817   -1.0053 H   0  0  0  0  0  0  0  0  0  0  0  0
   -3.3029    7.3782    1.0258 H   0  0  0  0  0  0  0  0  0  0  0  0
   -2.6679    5.0218    0.9631 H   0  0  0  0  0  0  0  0  0  0  0  0
  1  2  1  0
  2  3  1  0
  2  4  1  0
  2  5  1  0
  5  6  1  0
  6  7  2  0
  6  8  1  0
  8  9  2  0
  9 10  1  0
 10 11  2  0
 11 12  1  0
 12 13  2  0
 13 14  1  0
 14 15  1  0
 15 16  1  0
 15 17  1  0
 17 18  1  0
 18 19  1  0
 19 20  1  0
 20 21  2  0
 21 22  1  0
 22 23  2  0
 23 24  1  0
 24 25  2  0
 25 26  1  0
 26 27  2  0
 27 28  1  0
 28 29  2  0
 17 30  1  0
 30 31  1  0
 31 32  2  0
 31 33  1  0
 33 34  2  0
 34 35  1  0
 35 36  2  0
 36 37  1  0
 37 38  2  0
 38 39  1  0
 39 40  2  0
 40 41  1  0
 41 42  2  0
 13  8  1  0
 28 23  1  0
 29 20  1  0
 42 33  1  0
 42 37  1  0
  1 43  1  0
  1 44  1  0
  1 45  1  0
  3 46  1  0
  3 47  1  0
  3 48  1  0
  4 49  1  0
  4 50  1  0
  4 51  1  0
  5 52  1  0
  9 53  1  0
 10 54  1  0
 11 55  1  0
 12 56  1  0
 14 57  1  0
 14 58  1  0
 15 59  1  1
 16 60  1  0
 17 61  1  1
 18 62  1  0
 18 63  1  0
 21 64  1  0
 22 65  1  0
 24 66  1  0
 25 67  1  0
 26 68  1  0
 27 69  1  0
 29 70  1  0
 30 71  1  0
 34 72  1  0
 35 73  1  0
 38 74  1  0
 39 75  1  0
 40 76  1  0
 41 77  1  0
M  END
$$$$
