
     RDKit          3D

 86 90  0  0  0  0  0  0  0  0999 V2000
    0.8964    0.9122    2.4712 O   0  0  0  0  0  0  0  0  0  0  0  0
   -0.0016    1.4787    1.5558 C   0  0  2  0  0  0  0  0  0  0  0  0
   -1.4170    0.8534    1.7066 C   0  0  1  0  0  0  0  0  0  0  0  0
   -2.3591    1.5973    0.9753 O   0  0  0  0  0  0  0  0  0  0  0  0
   -1.4828   -0.6343    1.2839 C   0  0  1  0  0  0  0  0  0  0  0  0
   -2.7412   -1.3497    1.8425 C   0  0  0  0  0  0  0  0  0  0  0  0
   -2.6520   -1.5728    3.3330 C   0  0  0  0  0  0  0  0  0  0  0  0
   -1.8187   -2.5813    3.8470 C   0  0  0  0  0  0  0  0  0  0  0  0
   -1.7150   -2.7746    5.2277 C   0  0  0  0  0  0  0  0  0  0  0  0
   -2.4404   -1.9639    6.1049 C   0  0  0  0  0  0  0  0  0  0  0  0
   -3.2704   -0.9580    5.6026 C   0  0  0  0  0  0  0  0  0  0  0  0
   -3.3769   -0.7609    4.2224 C   0  0  0  0  0  0  0  0  0  0  0  0
   -1.3656   -0.7686   -0.1867 N   0  0  0  0  0  0  0  0  0  0  0  0
   -2.5767   -0.8592   -1.0431 C   0  0  0  0  0  0  0  0  0  0  0  0
   -2.4007   -0.4038   -2.5205 C   0  0  0  0  0  0  0  0  0  0  0  0
   -1.9174    1.0638   -2.6274 C   0  0  0  0  0  0  0  0  0  0  0  0
   -2.3999    1.7469   -3.9109 C   0  0  0  0  0  0  0  0  0  0  0  0
   -3.9375    1.8020   -3.9776 C   0  0  0  0  0  0  0  0  0  0  0  0
   -4.6214    0.5916   -3.3110 C   0  0  0  0  0  0  0  0  0  0  0  0
   -3.7158   -0.6455   -3.3141 C   0  0  0  0  0  0  0  0  0  0  0  0
   -0.0203   -0.9136   -0.6968 C   0  0  0  0  0  0  0  0  0  0  0  0
    0.3178   -1.9326   -1.4374 N   0  0  0  0  0  0  0  0  0  0  0  0
   -0.5179   -3.0126   -1.7651 C   0  0  0  0  0  0  0  0  0  0  0  0
   -1.2032   -3.9050   -2.0359 N   0  0  0  0  0  0  0  0  0  0  0  0
    1.0059    0.0025   -0.2341 N   0  0  0  0  0  0  0  0  0  0  0  0
    2.4349   -0.3938   -0.3277 C   0  0  0  0  0  0  0  0  0  0  0  0
    2.7986   -1.7353    0.3812 C   0  0  0  0  0  0  0  0  0  0  0  0
    4.2432   -2.1679    0.0359 C   0  0  0  0  0  0  0  0  0  0  0  0
    5.3030   -1.3098    0.7448 C   0  0  0  0  0  0  0  0  0  0  0  0
    5.0847   -1.2982    2.2620 C   0  0  0  0  0  0  0  0  0  0  0  0
    3.6661   -0.8401    2.6174 C   0  0  0  0  0  0  0  0  0  0  0  0
    2.6165   -1.7109    1.9121 C   0  0  0  0  0  0  0  0  0  0  0  0
    0.5740    1.3901    0.1189 C   0  0  2  0  0  0  0  0  0  0  0  0
    1.6430    2.4989   -0.1126 C   0  0  0  0  0  0  0  0  0  0  0  0
    2.0892    2.6016   -1.5532 C   0  0  0  0  0  0  0  0  0  0  0  0
    3.4183    2.3223   -1.9184 C   0  0  0  0  0  0  0  0  0  0  0  0
    3.8178    2.4160   -3.2551 C   0  0  0  0  0  0  0  0  0  0  0  0
    2.9021    2.8085   -4.2346 C   0  0  0  0  0  0  0  0  0  0  0  0
    1.5889    3.1225   -3.8769 C   0  0  0  0  0  0  0  0  0  0  0  0
    1.1865    3.0321   -2.5415 C   0  0  0  0  0  0  0  0  0  0  0  0
    0.6471    1.2460    3.3724 H   0  0  0  0  0  0  0  0  0  0  0  0
   -0.1170    2.5598    1.8084 H   0  0  0  0  0  0  0  0  0  0  0  0
   -1.6767    0.9167    2.7881 H   0  0  0  0  0  0  0  0  0  0  0  0
   -2.5214    2.4379    1.4780 H   0  0  0  0  0  0  0  0  0  0  0  0
   -0.6198   -1.1569    1.7485 H   0  0  0  0  0  0  0  0  0  0  0  0
   -3.6584   -0.7703    1.6021 H   0  0  0  0  0  0  0  0  0  0  0  0
   -2.8446   -2.3436    1.3552 H   0  0  0  0  0  0  0  0  0  0  0  0
   -1.2478   -3.2136    3.1780 H   0  0  0  0  0  0  0  0  0  0  0  0
   -1.0709   -3.5520    5.6178 H   0  0  0  0  0  0  0  0  0  0  0  0
   -2.3583   -2.1142    7.1736 H   0  0  0  0  0  0  0  0  0  0  0  0
   -3.8296   -0.3291    6.2831 H   0  0  0  0  0  0  0  0  0  0  0  0
   -4.0181    0.0275    3.8482 H   0  0  0  0  0  0  0  0  0  0  0  0
   -2.9364   -1.9095   -1.0286 H   0  0  0  0  0  0  0  0  0  0  0  0
   -3.3867   -0.2408   -0.6036 H   0  0  0  0  0  0  0  0  0  0  0  0
   -1.6350   -1.0387   -3.0080 H   0  0  0  0  0  0  0  0  0  0  0  0
   -0.8091    1.0685   -2.6347 H   0  0  0  0  0  0  0  0  0  0  0  0
   -2.2762    1.6606   -1.7611 H   0  0  0  0  0  0  0  0  0  0  0  0
   -2.0078    1.1873   -4.7887 H   0  0  0  0  0  0  0  0  0  0  0  0
   -1.9890    2.7785   -3.9611 H   0  0  0  0  0  0  0  0  0  0  0  0
   -4.2433    1.8582   -5.0450 H   0  0  0  0  0  0  0  0  0  0  0  0
   -4.2944    2.7311   -3.4820 H   0  0  0  0  0  0  0  0  0  0  0  0
   -5.5681    0.3603   -3.8454 H   0  0  0  0  0  0  0  0  0  0  0  0
   -4.8850    0.8457   -2.2610 H   0  0  0  0  0  0  0  0  0  0  0  0
   -3.4681   -0.8967   -4.3696 H   0  0  0  0  0  0  0  0  0  0  0  0
   -4.2772   -1.5154   -2.9090 H   0  0  0  0  0  0  0  0  0  0  0  0
    2.6946   -0.4773   -1.4052 H   0  0  0  0  0  0  0  0  0  0  0  0
    3.0878    0.3806    0.0951 H   0  0  0  0  0  0  0  0  0  0  0  0
    2.1459   -2.5422   -0.0019 H   0  0  0  0  0  0  0  0  0  0  0  0
    4.4060   -2.1210   -1.0628 H   0  0  0  0  0  0  0  0  0  0  0  0
    4.3855   -3.2294    0.3379 H   0  0  0  0  0  0  0  0  0  0  0  0
    5.2846   -0.2708    0.3521 H   0  0  0  0  0  0  0  0  0  0  0  0
    6.3100   -1.7266    0.5278 H   0  0  0  0  0  0  0  0  0  0  0  0
    5.8207   -0.6120    2.7334 H   0  0  0  0  0  0  0  0  0  0  0  0
    5.2589   -2.3183    2.6699 H   0  0  0  0  0  0  0  0  0  0  0  0
    3.5349    0.2280    2.3437 H   0  0  0  0  0  0  0  0  0  0  0  0
    3.5237   -0.9208    3.7165 H   0  0  0  0  0  0  0  0  0  0  0  0
    2.7062   -2.7505    2.2984 H   0  0  0  0  0  0  0  0  0  0  0  0
    1.5990   -1.3777    2.1749 H   0  0  0  0  0  0  0  0  0  0  0  0
   -0.2562    1.6763   -0.5498 H   0  0  0  0  0  0  0  0  0  0  0  0
    1.1971    3.4832    0.1512 H   0  0  0  0  0  0  0  0  0  0  0  0
    2.5015    2.3859    0.5821 H   0  0  0  0  0  0  0  0  0  0  0  0
    4.1480    2.0345   -1.1727 H   0  0  0  0  0  0  0  0  0  0  0  0
    4.8393    2.1883   -3.5308 H   0  0  0  0  0  0  0  0  0  0  0  0
    3.2134    2.8806   -5.2687 H   0  0  0  0  0  0  0  0  0  0  0  0
    0.8835    3.4416   -4.6333 H   0  0  0  0  0  0  0  0  0  0  0  0
    0.1720    3.3025   -2.2776 H   0  0  0  0  0  0  0  0  0  0  0  0
  1  2  1  0
  2  3  1  0
  3  4  1  0
  3  5  1  0
  5  6  1  0
  6  7  1  0
  7  8  2  0
  8  9  1  0
  9 10  2  0
 10 11  1  0
 11 12  2  0
  5 13  1  0
 13 14  1  0
 14 15  1  0
 15 16  1  0
 16 17  1  0
 17 18  1  0
 18 19  1  0
 19 20  1  0
 13 21  1  0
 21 22  2  3
 22 23  1  0
 23 24  3  0
 21 25  1  0
 25 26  1  0
 26 27  1  0
 27 28  1  0
 28 29  1  0
 29 30  1  0
 30 31  1  0
 31 32  1  0
 25 33  1  0
 33 34  1  0
 34 35  1  0
 35 36  2  0
 36 37  1  0
 37 38  2  0
 38 39  1  0
 39 40  2  0
 12  7  1  0
 20 15  1  0
 32 27  1  0
 33  2  1  0
 40 35  1  0
  1 41  1  0
  2 42  1  1
  3 43  1  1
  4 44  1  0
  5 45  1  1
  6 46  1  0
  6 47  1  0
  8 48  1  0
  9 49  1  0
 10 50  1  0
 11 51  1  0
 12 52  1  0
 14 53  1  0
 14 54  1  0
 15 55  1  0
 16 56  1  0
 16 57  1  0
 17 58  1  0
 17 59  1  0
 18 60  1  0
 18 61  1  0
 19 62  1  0
 19 63  1  0
 20 64  1  0
 20 65  1  0
 26 66  1  0
 26 67  1  0
 27 68  1  0
 28 69  1  0
 28 70  1  0
 29 71  1  0
 29 72  1  0
 30 73  1  0
 30 74  1  0
 31 75  1  0
 31 76  1  0
 32 77  1  0
 32 78  1  0
 33 79  1  6
 34 80  1  0
 34 81  1  0
 36 82  1  0
 37 83  1  0
 38 84  1  0
 39 85  1  0
 40 86  1  0
M  END
$$$$
