
     RDKit          3D

 69 74  0  0  0  0  0  0  0  0999 V2000
   -2.6082    3.1400   -0.1764 O   0  0  0  0  0  0  0  0  0  0  0  0
   -2.7273    1.9088    0.4742 C   0  0  0  0  0  0  0  0  0  0  0  0
   -3.8233    1.7252    1.1986 O   0  0  0  0  0  0  0  0  0  0  0  0
   -4.1020    0.6109    1.8625 C   0  0  0  0  0  0  0  0  0  0  0  0
   -5.4269    0.5521    2.5766 C   0  0  0  0  0  0  0  0  0  0  0  0
   -6.5548    0.0695    1.6527 C   0  0  0  0  0  0  0  0  0  0  0  0
   -6.2414   -1.2161    0.8653 C   0  0  0  0  0  0  0  0  0  0  0  0
   -5.8562   -2.4138    1.7576 C   0  0  0  0  0  0  0  0  0  0  0  0
   -4.3526   -2.7445    1.7239 C   0  0  0  0  0  0  0  0  0  0  0  0
   -3.4824   -1.7847    2.5495 C   0  0  0  0  0  0  0  0  0  0  0  0
   -3.2043   -0.4776    1.8230 C   0  0  0  0  0  0  0  0  0  0  0  0
   -2.0407   -0.3396    1.0436 C   0  0  0  0  0  0  0  0  0  0  0  0
   -1.2455   -1.3139    0.9383 O   0  0  0  0  0  0  0  0  0  0  0  0
   -1.7587    0.8758    0.3779 C   0  0  0  0  0  0  0  0  0  0  0  0
   -0.4620    1.0284   -0.4215 C   0  0  0  0  0  0  0  0  0  0  0  0
   -0.5556    0.1672   -1.7034 C   0  0  0  0  0  0  0  0  0  0  0  0
    0.2790    0.6335   -2.8865 C   0  0  0  0  0  0  0  0  0  0  0  0
   -1.2261    0.8447   -2.8910 C   0  0  0  0  0  0  0  0  0  0  0  0
    0.7492    0.7209    0.4539 C   0  0  0  0  0  0  0  0  0  0  0  0
    1.0143    1.5697    1.5439 C   0  0  0  0  0  0  0  0  0  0  0  0
    2.0789    1.3105    2.4074 C   0  0  0  0  0  0  0  0  0  0  0  0
    2.9002    0.2043    2.1942 C   0  0  0  0  0  0  0  0  0  0  0  0
    2.6759   -0.6447    1.1032 C   0  0  0  0  0  0  0  0  0  0  0  0
    3.5433   -1.7702    0.9001 N   0  0  0  0  0  0  0  0  0  0  0  0
    3.9557   -2.3605   -0.6785 S   0  0  0  0  0  0  0  0  0  0  0  0
    2.8692   -3.2880   -1.1467 O   0  0  0  0  0  0  0  0  0  0  0  0
    5.2459   -3.1274   -0.6042 O   0  0  0  0  0  0  0  0  0  0  0  0
    4.1632   -1.0077   -1.8079 C   0  0  0  0  0  0  0  0  0  0  0  0
    3.4435   -1.0318   -3.0127 C   0  0  0  0  0  0  0  0  0  0  0  0
    3.5328    0.0223   -3.9206 C   0  0  0  0  0  0  0  0  0  0  0  0
    4.3321    1.1267   -3.6391 C   0  0  0  0  0  0  0  0  0  0  0  0
    5.0725    1.1772   -2.4510 C   0  0  0  0  0  0  0  0  0  0  0  0
    5.8819    2.2915   -2.1793 C   0  0  0  0  0  0  0  0  0  0  0  0
    6.6350    2.3449   -1.0066 C   0  0  0  0  0  0  0  0  0  0  0  0
    6.5949    1.2860   -0.1009 C   0  0  0  0  0  0  0  0  0  0  0  0
    5.7954    0.1694   -0.3557 C   0  0  0  0  0  0  0  0  0  0  0  0
    5.0082    0.0992   -1.5254 C   0  0  0  0  0  0  0  0  0  0  0  0
    1.5968   -0.3880    0.2385 C   0  0  0  0  0  0  0  0  0  0  0  0
   -1.8937    3.3839   -0.8444 H   0  0  0  0  0  0  0  0  0  0  0  0
   -5.3898   -0.0622    3.4953 H   0  0  0  0  0  0  0  0  0  0  0  0
   -5.6826    1.5761    2.9254 H   0  0  0  0  0  0  0  0  0  0  0  0
   -7.4703   -0.0909    2.2628 H   0  0  0  0  0  0  0  0  0  0  0  0
   -6.7863    0.8755    0.9221 H   0  0  0  0  0  0  0  0  0  0  0  0
   -7.1592   -1.4831    0.2968 H   0  0  0  0  0  0  0  0  0  0  0  0
   -5.4609   -1.0136    0.0999 H   0  0  0  0  0  0  0  0  0  0  0  0
   -6.3953   -3.3086    1.3757 H   0  0  0  0  0  0  0  0  0  0  0  0
   -6.2010   -2.2721    2.8050 H   0  0  0  0  0  0  0  0  0  0  0  0
   -3.9859   -2.7974    0.6751 H   0  0  0  0  0  0  0  0  0  0  0  0
   -4.2273   -3.7624    2.1541 H   0  0  0  0  0  0  0  0  0  0  0  0
   -3.9205   -1.6194    3.5530 H   0  0  0  0  0  0  0  0  0  0  0  0
   -2.5213   -2.2984    2.7673 H   0  0  0  0  0  0  0  0  0  0  0  0
   -0.3016    2.0794   -0.7197 H   0  0  0  0  0  0  0  0  0  0  0  0
   -0.7351   -0.9277   -1.6420 H   0  0  0  0  0  0  0  0  0  0  0  0
    0.6143   -0.1831   -3.5589 H   0  0  0  0  0  0  0  0  0  0  0  0
    0.8719    1.5602   -2.7311 H   0  0  0  0  0  0  0  0  0  0  0  0
   -1.5263    1.9052   -2.7602 H   0  0  0  0  0  0  0  0  0  0  0  0
   -1.7715    0.1552   -3.5694 H   0  0  0  0  0  0  0  0  0  0  0  0
    0.3825    2.4292    1.7326 H   0  0  0  0  0  0  0  0  0  0  0  0
    2.2656    1.9677    3.2469 H   0  0  0  0  0  0  0  0  0  0  0  0
    3.7242    0.0165    2.8711 H   0  0  0  0  0  0  0  0  0  0  0  0
    4.1189   -2.1156    1.7006 H   0  0  0  0  0  0  0  0  0  0  0  0
    2.7995   -1.8674   -3.2531 H   0  0  0  0  0  0  0  0  0  0  0  0
    2.9679   -0.0120   -4.8432 H   0  0  0  0  0  0  0  0  0  0  0  0
    4.3765    1.9399   -4.3540 H   0  0  0  0  0  0  0  0  0  0  0  0
    5.9337    3.1203   -2.8756 H   0  0  0  0  0  0  0  0  0  0  0  0
    7.2576    3.2065   -0.8029 H   0  0  0  0  0  0  0  0  0  0  0  0
    7.1900    1.3280    0.8023 H   0  0  0  0  0  0  0  0  0  0  0  0
    5.8147   -0.6323    0.3666 H   0  0  0  0  0  0  0  0  0  0  0  0
    1.4114   -1.0674   -0.5795 H   0  0  0  0  0  0  0  0  0  0  0  0
  1  2  1  0
  2  3  1  0
  3  4  1  0
  4  5  1  0
  5  6  1  0
  6  7  1  0
  7  8  1  0
  8  9  1  0
  9 10  1  0
 10 11  1  0
 11 12  1  0
 12 13  2  0
 12 14  1  0
 14 15  1  0
 15 16  1  0
 16 17  1  0
 17 18  1  0
 15 19  1  0
 19 20  2  0
 20 21  1  0
 21 22  2  0
 22 23  1  0
 23 24  1  0
 24 25  1  0
 25 26  2  0
 25 27  2  0
 25 28  1  0
 28 29  2  0
 29 30  1  0
 30 31  2  0
 31 32  1  0
 32 33  2  0
 33 34  1  0
 34 35  2  0
 35 36  1  0
 36 37  2  0
 23 38  2  0
 11  4  2  0
 14  2  2  0
 18 16  1  0
 37 28  1  0
 37 32  1  0
 38 19  1  0
  1 39  1  0
  5 40  1  0
  5 41  1  0
  6 42  1  0
  6 43  1  0
  7 44  1  0
  7 45  1  0
  8 46  1  0
  8 47  1  0
  9 48  1  0
  9 49  1  0
 10 50  1  0
 10 51  1  0
 15 52  1  0
 16 53  1  0
 17 54  1  0
 17 55  1  0
 18 56  1  0
 18 57  1  0
 20 58  1  0
 21 59  1  0
 22 60  1  0
 24 61  1  0
 29 62  1  0
 30 63  1  0
 31 64  1  0
 33 65  1  0
 34 66  1  0
 35 67  1  0
 36 68  1  0
 38 69  1  0
M  END
$$$$
