
     RDKit          3D

 84 87  0  0  0  0  0  0  0  0999 V2000
   -7.1273    1.7104    2.5482 C   0  0  0  0  0  0  0  0  0  0  0  0
   -6.0212    0.8332    1.9393 C   0  0  0  0  0  0  0  0  0  0  0  0
   -6.4562   -0.6375    1.8554 C   0  0  0  0  0  0  0  0  0  0  0  0
   -5.4360    1.3960    0.6032 C   0  0  0  0  0  0  0  0  0  0  0  0
   -4.0534    0.9169    0.4772 N   0  0  0  0  0  0  0  0  0  0  0  0
   -2.9184    1.6654    0.9371 C   0  0  0  0  0  0  0  0  0  0  0  0
   -3.0711    2.7898    1.4867 O   0  0  0  0  0  0  0  0  0  0  0  0
   -1.5370    1.1315    0.7161 C   0  0  0  0  0  0  0  0  0  0  0  0
   -1.0507    1.5235   -0.6838 C   0  0  2  0  0  0  0  0  0  0  0  0
   -1.7486    0.7995   -1.6700 O   0  0  0  0  0  0  0  0  0  0  0  0
   -0.3587    0.5709   -1.6089 C   0  0  2  0  0  0  0  0  0  0  0  0
    0.0165   -0.8820   -1.2051 C   0  0  2  0  0  0  0  0  0  0  0  0
   -1.1457   -1.9072   -1.2561 C   0  0  0  0  0  0  0  0  0  0  0  0
   -1.7356   -2.0532   -2.6393 C   0  0  0  0  0  0  0  0  0  0  0  0
   -0.9791   -2.6234   -3.6780 C   0  0  0  0  0  0  0  0  0  0  0  0
   -1.5252   -2.7548   -4.9585 C   0  0  0  0  0  0  0  0  0  0  0  0
   -2.8309   -2.3257   -5.2111 C   0  0  0  0  0  0  0  0  0  0  0  0
   -3.5952   -1.7700   -4.1820 C   0  0  0  0  0  0  0  0  0  0  0  0
   -3.0540   -1.6385   -2.9000 C   0  0  0  0  0  0  0  0  0  0  0  0
    0.6877   -0.9120    0.0991 N   0  0  0  0  0  0  0  0  0  0  0  0
    1.9680   -0.2997    0.3137 C   0  0  0  0  0  0  0  0  0  0  0  0
    2.5269    0.3446   -0.6164 O   0  0  0  0  0  0  0  0  0  0  0  0
    2.6307   -0.3913    1.6660 C   0  0  0  0  0  0  0  0  0  0  0  0
    2.1543    0.7399    2.6014 C   0  0  0  0  0  0  0  0  0  0  0  0
    2.4660    2.1184    2.0824 C   0  0  0  0  0  0  0  0  0  0  0  0
    3.6013    2.8376    2.5647 N   0  0  0  0  0  0  0  0  0  0  0  0
    1.7227    2.6432    1.2109 O   0  0  0  0  0  0  0  0  0  0  0  0
    4.0932   -0.4005    1.5299 N   0  0  0  0  0  0  0  0  0  0  0  0
    4.7940   -1.5077    0.9379 C   0  0  0  0  0  0  0  0  0  0  0  0
    4.1484   -2.5183    0.5450 O   0  0  0  0  0  0  0  0  0  0  0  0
    6.2650   -1.4709    0.7842 C   0  0  0  0  0  0  0  0  0  0  0  0
    6.9612   -2.5531    0.2180 C   0  0  0  0  0  0  0  0  0  0  0  0
    8.3497   -2.4895    0.0827 C   0  0  0  0  0  0  0  0  0  0  0  0
    9.0405   -1.3501    0.5104 C   0  0  0  0  0  0  0  0  0  0  0  0
   10.4349   -1.2530    0.3891 C   0  0  0  0  0  0  0  0  0  0  0  0
   11.0948   -0.0997    0.8264 C   0  0  0  0  0  0  0  0  0  0  0  0
   10.3690    0.9579    1.3846 C   0  0  0  0  0  0  0  0  0  0  0  0
    8.9788    0.8686    1.5089 C   0  0  0  0  0  0  0  0  0  0  0  0
    8.3101   -0.2814    1.0742 C   0  0  0  0  0  0  0  0  0  0  0  0
    6.9587   -0.3720    1.1930 N   0  0  0  0  0  0  0  0  0  0  0  0
   -6.2186    1.0498   -0.7072 C   0  0  0  0  0  0  0  0  0  0  0  0
   -7.6662    1.5680   -0.7007 C   0  0  0  0  0  0  0  0  0  0  0  0
   -5.4937    1.6316   -1.9363 C   0  0  0  0  0  0  0  0  0  0  0  0
   -7.3058    1.4051    3.6016 H   0  0  0  0  0  0  0  0  0  0  0  0
   -8.0880    1.6133    2.0106 H   0  0  0  0  0  0  0  0  0  0  0  0
   -6.8207    2.7778    2.5544 H   0  0  0  0  0  0  0  0  0  0  0  0
   -5.1940    0.8663    2.6847 H   0  0  0  0  0  0  0  0  0  0  0  0
   -6.6902   -1.0199    2.8719 H   0  0  0  0  0  0  0  0  0  0  0  0
   -5.6381   -1.2599    1.4361 H   0  0  0  0  0  0  0  0  0  0  0  0
   -7.3607   -0.7583    1.2262 H   0  0  0  0  0  0  0  0  0  0  0  0
   -5.4162    2.5063    0.6786 H   0  0  0  0  0  0  0  0  0  0  0  0
   -3.8947   -0.0561    0.1304 H   0  0  0  0  0  0  0  0  0  0  0  0
   -1.5545    0.0415    0.8853 H   0  0  0  0  0  0  0  0  0  0  0  0
   -0.8472    1.5718    1.4653 H   0  0  0  0  0  0  0  0  0  0  0  0
   -1.0049    2.6017   -0.9462 H   0  0  0  0  0  0  0  0  0  0  0  0
    0.1574    1.0228   -2.4821 H   0  0  0  0  0  0  0  0  0  0  0  0
    0.7628   -1.2244   -1.9550 H   0  0  0  0  0  0  0  0  0  0  0  0
   -0.7578   -2.9010   -0.9427 H   0  0  0  0  0  0  0  0  0  0  0  0
   -1.9365   -1.6404   -0.5261 H   0  0  0  0  0  0  0  0  0  0  0  0
    0.0313   -2.9676   -3.4961 H   0  0  0  0  0  0  0  0  0  0  0  0
   -0.9363   -3.1910   -5.7550 H   0  0  0  0  0  0  0  0  0  0  0  0
   -3.2517   -2.4278   -6.2031 H   0  0  0  0  0  0  0  0  0  0  0  0
   -4.6084   -1.4427   -4.3767 H   0  0  0  0  0  0  0  0  0  0  0  0
   -3.6633   -1.2131   -2.1131 H   0  0  0  0  0  0  0  0  0  0  0  0
    0.2661   -1.4615    0.8823 H   0  0  0  0  0  0  0  0  0  0  0  0
    2.3254   -1.3496    2.1416 H   0  0  0  0  0  0  0  0  0  0  0  0
    2.6244    0.6054    3.5996 H   0  0  0  0  0  0  0  0  0  0  0  0
    1.0570    0.6509    2.7533 H   0  0  0  0  0  0  0  0  0  0  0  0
    4.2210    2.4305    3.2998 H   0  0  0  0  0  0  0  0  0  0  0  0
    3.8198    3.7876    2.1906 H   0  0  0  0  0  0  0  0  0  0  0  0
    4.6476    0.4023    1.9009 H   0  0  0  0  0  0  0  0  0  0  0  0
    6.4380   -3.4399   -0.1172 H   0  0  0  0  0  0  0  0  0  0  0  0
    8.8806   -3.3267   -0.3544 H   0  0  0  0  0  0  0  0  0  0  0  0
   11.0103   -2.0639   -0.0412 H   0  0  0  0  0  0  0  0  0  0  0  0
   12.1705   -0.0253    0.7326 H   0  0  0  0  0  0  0  0  0  0  0  0
   10.8848    1.8479    1.7213 H   0  0  0  0  0  0  0  0  0  0  0  0
    8.4247    1.6922    1.9422 H   0  0  0  0  0  0  0  0  0  0  0  0
   -6.2461   -0.0540   -0.8395 H   0  0  0  0  0  0  0  0  0  0  0  0
   -8.3107    0.9224   -0.0743 H   0  0  0  0  0  0  0  0  0  0  0  0
   -7.7100    2.6172   -0.3382 H   0  0  0  0  0  0  0  0  0  0  0  0
   -8.1033    1.5324   -1.7216 H   0  0  0  0  0  0  0  0  0  0  0  0
   -4.4711    1.2134   -2.0323 H   0  0  0  0  0  0  0  0  0  0  0  0
   -5.4222    2.7379   -1.8600 H   0  0  0  0  0  0  0  0  0  0  0  0
   -6.0388    1.3711   -2.8688 H   0  0  0  0  0  0  0  0  0  0  0  0
  1  2  1  0
  2  3  1  0
  2  4  1  0
  4  5  1  0
  5  6  1  0
  6  7  2  0
  6  8  1  0
  8  9  1  0
  9 10  1  0
 10 11  1  0
 11 12  1  0
 12 13  1  0
 13 14  1  0
 14 15  2  0
 15 16  1  0
 16 17  2  0
 17 18  1  0
 18 19  2  0
 12 20  1  0
 20 21  1  0
 21 22  2  0
 21 23  1  0
 23 24  1  0
 24 25  1  0
 25 26  1  0
 25 27  2  0
 23 28  1  0
 28 29  1  0
 29 30  2  0
 29 31  1  0
 31 32  2  0
 32 33  1  0
 33 34  2  0
 34 35  1  0
 35 36  2  0
 36 37  1  0
 37 38  2  0
 38 39  1  0
 39 40  2  0
  4 41  1  0
 41 42  1  0
 41 43  1  0
 11  9  1  0
 19 14  1  0
 39 34  1  0
 40 31  1  0
  1 44  1  0
  1 45  1  0
  1 46  1  0
  2 47  1  0
  3 48  1  0
  3 49  1  0
  3 50  1  0
  4 51  1  0
  5 52  1  0
  8 53  1  0
  8 54  1  0
  9 55  1  6
 11 56  1  6
 12 57  1  6
 13 58  1  0
 13 59  1  0
 15 60  1  0
 16 61  1  0
 17 62  1  0
 18 63  1  0
 19 64  1  0
 20 65  1  0
 23 66  1  0
 24 67  1  0
 24 68  1  0
 26 69  1  0
 26 70  1  0
 28 71  1  0
 32 72  1  0
 33 73  1  0
 35 74  1  0
 36 75  1  0
 37 76  1  0
 38 77  1  0
 41 78  1  0
 42 79  1  0
 42 80  1  0
 42 81  1  0
 43 82  1  0
 43 83  1  0
 43 84  1  0
M  END
$$$$
