
     RDKit          3D

 79 82  0  0  0  0  0  0  0  0999 V2000
    2.2777    2.7800    0.9237 C   0  0  0  0  0  0  0  0  0  0  0  0
    3.3883    1.8697    0.3631 C   0  0  0  0  0  0  0  0  0  0  0  0
    4.2756    1.3729    1.5194 C   0  0  0  0  0  0  0  0  0  0  0  0
    2.8375    0.7236   -0.5591 C   0  0  0  0  0  0  0  0  0  0  0  0
    3.9898   -0.0593   -1.2703 C   0  0  0  0  0  0  0  0  0  0  0  0
    4.8810    0.7824   -2.2159 C   0  0  0  0  0  0  0  0  0  0  0  0
    6.1495    1.2733   -1.5580 C   0  0  0  0  0  0  0  0  0  0  0  0
    7.1087    0.3557   -1.0945 C   0  0  0  0  0  0  0  0  0  0  0  0
    8.2873    0.8073   -0.4938 C   0  0  0  0  0  0  0  0  0  0  0  0
    8.5302    2.1810   -0.3656 C   0  0  0  0  0  0  0  0  0  0  0  0
    9.6996    2.6429    0.2340 O   0  0  0  0  0  0  0  0  0  0  0  0
    7.5925    3.0988   -0.8483 C   0  0  0  0  0  0  0  0  0  0  0  0
    6.4133    2.6498   -1.4502 C   0  0  0  0  0  0  0  0  0  0  0  0
    1.9750   -0.2878    0.2516 C   0  0  0  0  0  0  0  0  0  0  0  0
    1.1498   -1.1408   -0.6663 C   0  0  0  0  0  0  0  0  0  0  0  0
    0.9101   -2.3358   -0.3565 O   0  0  0  0  0  0  0  0  0  0  0  0
    0.5896   -0.5547   -1.8963 C   0  0  0  0  0  0  0  0  0  0  0  0
   -0.6779   -1.4199   -2.8531 S   0  0  0  0  0  0  0  0  0  0  0  0
   -2.0535   -0.9872   -1.7587 C   0  0  0  0  0  0  0  0  0  0  0  0
   -2.3234    0.3825   -1.6207 C   0  0  0  0  0  0  0  0  0  0  0  0
   -3.2423    0.8579   -0.6837 C   0  0  0  0  0  0  0  0  0  0  0  0
   -3.4511    2.3419   -0.5368 C   0  0  0  0  0  0  0  0  0  0  0  0
   -3.9387   -0.0583    0.1199 C   0  0  0  0  0  0  0  0  0  0  0  0
   -4.8940    0.4005    1.0954 N   0  0  0  0  0  0  0  0  0  0  0  0
   -5.0301   -0.1976    2.3958 C   0  0  0  0  0  0  0  0  0  0  0  0
   -4.0979   -0.9154    2.8522 O   0  0  0  0  0  0  0  0  0  0  0  0
   -6.2328    0.0489    3.2270 C   0  0  0  0  0  0  0  0  0  0  0  0
   -6.1946   -0.1655    4.6154 C   0  0  0  0  0  0  0  0  0  0  0  0
   -7.3307    0.0624    5.3936 C   0  0  0  0  0  0  0  0  0  0  0  0
   -8.5047    0.4967    4.7786 C   0  0  0  0  0  0  0  0  0  0  0  0
   -8.5367    0.6890    3.4340 N   0  0  0  0  0  0  0  0  0  0  0  0
   -7.4435    0.4773    2.6530 C   0  0  0  0  0  0  0  0  0  0  0  0
   -3.7530   -1.4340   -0.0836 C   0  0  0  0  0  0  0  0  0  0  0  0
   -2.8490   -1.9466   -1.0520 C   0  0  0  0  0  0  0  0  0  0  0  0
   -2.8441   -3.4739   -1.3867 C   0  0  0  0  0  0  0  0  0  0  0  0
   -3.9156   -4.2720   -0.5926 C   0  0  0  0  0  0  0  0  0  0  0  0
   -3.1740   -3.6914   -2.8827 C   0  0  0  0  0  0  0  0  0  0  0  0
   -1.4855   -4.1203   -1.0449 C   0  0  0  0  0  0  0  0  0  0  0  0
    1.0356    0.6428   -2.3020 C   0  0  0  0  0  0  0  0  0  0  0  0
    0.5206    1.2307   -3.4533 O   0  0  0  0  0  0  0  0  0  0  0  0
    2.0208    1.3282   -1.5744 O   0  0  0  0  0  0  0  0  0  0  0  0
    1.6917    2.2724    1.7170 H   0  0  0  0  0  0  0  0  0  0  0  0
    2.7313    3.6893    1.3733 H   0  0  0  0  0  0  0  0  0  0  0  0
    1.5890    3.1151    0.1205 H   0  0  0  0  0  0  0  0  0  0  0  0
    4.0104    2.5350   -0.2655 H   0  0  0  0  0  0  0  0  0  0  0  0
    3.7011    0.7278    2.2162 H   0  0  0  0  0  0  0  0  0  0  0  0
    4.6663    2.2397    2.0941 H   0  0  0  0  0  0  0  0  0  0  0  0
    5.1538    0.8124    1.1439 H   0  0  0  0  0  0  0  0  0  0  0  0
    3.5294   -0.8520   -1.8994 H   0  0  0  0  0  0  0  0  0  0  0  0
    4.6035   -0.6122   -0.5293 H   0  0  0  0  0  0  0  0  0  0  0  0
    4.3028    1.6271   -2.6483 H   0  0  0  0  0  0  0  0  0  0  0  0
    5.1816    0.1475   -3.0780 H   0  0  0  0  0  0  0  0  0  0  0  0
    6.9429   -0.7095   -1.1969 H   0  0  0  0  0  0  0  0  0  0  0  0
    9.0123    0.0893   -0.1321 H   0  0  0  0  0  0  0  0  0  0  0  0
   10.3990    2.0033    0.5926 H   0  0  0  0  0  0  0  0  0  0  0  0
    7.7795    4.1614   -0.7603 H   0  0  0  0  0  0  0  0  0  0  0  0
    5.7054    3.3773   -1.8272 H   0  0  0  0  0  0  0  0  0  0  0  0
    2.6213   -0.9356    0.8832 H   0  0  0  0  0  0  0  0  0  0  0  0
    1.2645    0.2360    0.9203 H   0  0  0  0  0  0  0  0  0  0  0  0
   -1.7773    1.0933   -2.2255 H   0  0  0  0  0  0  0  0  0  0  0  0
   -3.3679    2.6342    0.5314 H   0  0  0  0  0  0  0  0  0  0  0  0
   -4.4571    2.6162   -0.9176 H   0  0  0  0  0  0  0  0  0  0  0  0
   -2.6926    2.9216   -1.1048 H   0  0  0  0  0  0  0  0  0  0  0  0
   -5.4439    1.2636    0.8892 H   0  0  0  0  0  0  0  0  0  0  0  0
   -5.2854   -0.4994    5.0999 H   0  0  0  0  0  0  0  0  0  0  0  0
   -7.3012   -0.0962    6.4638 H   0  0  0  0  0  0  0  0  0  0  0  0
   -9.3929    0.6765    5.3694 H   0  0  0  0  0  0  0  0  0  0  0  0
   -7.5332    0.6244    1.5856 H   0  0  0  0  0  0  0  0  0  0  0  0
   -4.3683   -2.0871    0.5120 H   0  0  0  0  0  0  0  0  0  0  0  0
   -3.9143   -5.3453   -0.8840 H   0  0  0  0  0  0  0  0  0  0  0  0
   -3.7122   -4.2370    0.4999 H   0  0  0  0  0  0  0  0  0  0  0  0
   -4.9367   -3.8826   -0.7971 H   0  0  0  0  0  0  0  0  0  0  0  0
   -2.3789   -3.3237   -3.5552 H   0  0  0  0  0  0  0  0  0  0  0  0
   -3.2959   -4.7731   -3.1092 H   0  0  0  0  0  0  0  0  0  0  0  0
   -4.1210   -3.1728   -3.1471 H   0  0  0  0  0  0  0  0  0  0  0  0
   -0.6855   -3.8209   -1.7440 H   0  0  0  0  0  0  0  0  0  0  0  0
   -1.5443   -5.2284   -1.1156 H   0  0  0  0  0  0  0  0  0  0  0  0
   -1.1884   -3.8602   -0.0066 H   0  0  0  0  0  0  0  0  0  0  0  0
    0.8516    2.1368   -3.7609 H   0  0  0  0  0  0  0  0  0  0  0  0
  1  2  1  0
  2  3  1  0
  2  4  1  0
  4  5  1  0
  5  6  1  0
  6  7  1  0
  7  8  2  0
  8  9  1  0
  9 10  2  0
 10 11  1  0
 10 12  1  0
 12 13  2  0
  4 14  1  0
 14 15  1  0
 15 16  2  0
 15 17  1  0
 17 18  1  0
 18 19  1  0
 19 20  2  0
 20 21  1  0
 21 22  1  0
 21 23  2  0
 23 24  1  0
 24 25  1  0
 25 26  2  0
 25 27  1  0
 27 28  2  0
 28 29  1  0
 29 30  2  0
 30 31  1  0
 31 32  2  0
 23 33  1  0
 33 34  2  0
 34 35  1  0
 35 36  1  0
 35 37  1  0
 35 38  1  0
 17 39  2  0
 39 40  1  0
 39 41  1  0
 13  7  1  0
 32 27  1  0
 34 19  1  0
 41  4  1  0
  1 42  1  0
  1 43  1  0
  1 44  1  0
  2 45  1  0
  3 46  1  0
  3 47  1  0
  3 48  1  0
  5 49  1  0
  5 50  1  0
  6 51  1  0
  6 52  1  0
  8 53  1  0
  9 54  1  0
 11 55  1  0
 12 56  1  0
 13 57  1  0
 14 58  1  0
 14 59  1  0
 20 60  1  0
 22 61  1  0
 22 62  1  0
 22 63  1  0
 24 64  1  0
 28 65  1  0
 29 66  1  0
 30 67  1  0
 32 68  1  0
 33 69  1  0
 36 70  1  0
 36 71  1  0
 36 72  1  0
 37 73  1  0
 37 74  1  0
 37 75  1  0
 38 76  1  0
 38 77  1  0
 38 78  1  0
 40 79  1  0
M  END
$$$$
