
     RDKit          3D

 72 75  0  0  0  0  0  0  0  0999 V2000
   -6.7223   -2.1836   -1.4147 C   0  0  0  0  0  0  0  0  0  0  0  0
   -5.8286   -1.3740   -0.4792 C   0  0  0  0  0  0  0  0  0  0  0  0
   -4.6615   -0.7325   -1.2509 C   0  0  0  0  0  0  0  0  0  0  0  0
   -3.6356    0.0024   -0.3537 C   0  0  0  0  0  0  0  0  0  0  0  0
   -4.2259    1.3091    0.2286 C   0  0  0  0  0  0  0  0  0  0  0  0
   -3.3159    2.0020    1.2639 C   0  0  0  0  0  0  0  0  0  0  0  0
   -2.0057    2.4702    0.6817 C   0  0  0  0  0  0  0  0  0  0  0  0
   -1.9793    3.5380   -0.2308 C   0  0  0  0  0  0  0  0  0  0  0  0
   -0.7706    3.9466   -0.8019 C   0  0  0  0  0  0  0  0  0  0  0  0
    0.4186    3.2951   -0.4660 C   0  0  0  0  0  0  0  0  0  0  0  0
    0.4044    2.2380    0.4475 C   0  0  0  0  0  0  0  0  0  0  0  0
   -0.8022    1.8276    1.0236 C   0  0  0  0  0  0  0  0  0  0  0  0
   -3.2331   -0.8575    0.7179 O   0  0  0  0  0  0  0  0  0  0  0  0
   -2.1728   -1.7690    0.6228 C   0  0  0  0  0  0  0  0  0  0  0  0
   -2.0637   -2.7447    1.6051 O   0  0  0  0  0  0  0  0  0  0  0  0
   -1.2696   -1.6700   -0.3744 C   0  0  0  0  0  0  0  0  0  0  0  0
   -0.0358   -2.5679   -0.5143 C   0  0  0  0  0  0  0  0  0  0  0  0
   -0.2560   -4.0810   -0.2065 C   0  0  0  0  0  0  0  0  0  0  0  0
    0.3554   -4.5913    1.1049 C   0  0  0  0  0  0  0  0  0  0  0  0
    1.1842   -1.9582    0.1640 C   0  0  0  0  0  0  0  0  0  0  0  0
    1.1093   -1.4118    1.4589 C   0  0  0  0  0  0  0  0  0  0  0  0
    2.2414   -0.8659    2.0634 C   0  0  0  0  0  0  0  0  0  0  0  0
    3.4634   -0.8599    1.3912 C   0  0  0  0  0  0  0  0  0  0  0  0
    3.5659   -1.4049    0.0998 C   0  0  0  0  0  0  0  0  0  0  0  0
    4.8115   -1.4105   -0.6179 N   0  0  0  0  0  0  0  0  0  0  0  0
    6.0983   -0.2935   -0.2924 S   0  0  0  0  0  0  0  0  0  0  0  0
    6.7897   -0.6836    0.9842 O   0  0  0  0  0  0  0  0  0  0  0  0
    7.0958   -0.3407   -1.4153 O   0  0  0  0  0  0  0  0  0  0  0  0
    5.4435    1.3377   -0.1864 C   0  0  0  0  0  0  0  0  0  0  0  0
    4.7610    1.8794   -1.2834 C   0  0  0  0  0  0  0  0  0  0  0  0
    4.2095    3.1614   -1.2062 C   0  0  0  0  0  0  0  0  0  0  0  0
    4.3280    3.9066   -0.0263 C   0  0  0  0  0  0  0  0  0  0  0  0
    3.7460    5.2203    0.0588 C   0  0  0  0  0  0  0  0  0  0  0  0
    3.2767    6.2758    0.1271 N   0  0  0  0  0  0  0  0  0  0  0  0
    5.0087    3.3673    1.0725 C   0  0  0  0  0  0  0  0  0  0  0  0
    5.5673    2.0878    0.9922 C   0  0  0  0  0  0  0  0  0  0  0  0
    2.4264   -1.9667   -0.4968 C   0  0  0  0  0  0  0  0  0  0  0  0
   -1.4092   -0.5106   -1.2841 C   0  0  0  0  0  0  0  0  0  0  0  0
   -0.5200   -0.2442   -2.1356 O   0  0  0  0  0  0  0  0  0  0  0  0
   -2.5106    0.3352   -1.1673 O   0  0  0  0  0  0  0  0  0  0  0  0
   -7.5610   -2.6266   -0.8372 H   0  0  0  0  0  0  0  0  0  0  0  0
   -6.1436   -3.0064   -1.8861 H   0  0  0  0  0  0  0  0  0  0  0  0
   -7.1434   -1.5296   -2.2078 H   0  0  0  0  0  0  0  0  0  0  0  0
   -6.4523   -0.5928    0.0016 H   0  0  0  0  0  0  0  0  0  0  0  0
   -5.4401   -2.0528    0.3101 H   0  0  0  0  0  0  0  0  0  0  0  0
   -5.0633   -0.0243   -2.0089 H   0  0  0  0  0  0  0  0  0  0  0  0
   -4.1263   -1.5365   -1.8034 H   0  0  0  0  0  0  0  0  0  0  0  0
   -4.4539    2.0159   -0.5991 H   0  0  0  0  0  0  0  0  0  0  0  0
   -5.1834    1.0918    0.7439 H   0  0  0  0  0  0  0  0  0  0  0  0
   -3.8543    2.8857    1.6703 H   0  0  0  0  0  0  0  0  0  0  0  0
   -3.1426    1.3200    2.1248 H   0  0  0  0  0  0  0  0  0  0  0  0
   -2.8949    4.0472   -0.5048 H   0  0  0  0  0  0  0  0  0  0  0  0
   -0.7564    4.7662   -1.5087 H   0  0  0  0  0  0  0  0  0  0  0  0
    1.3494    3.6101   -0.9154 H   0  0  0  0  0  0  0  0  0  0  0  0
    1.3274    1.7343    0.7045 H   0  0  0  0  0  0  0  0  0  0  0  0
   -0.8005    1.0003    1.7217 H   0  0  0  0  0  0  0  0  0  0  0  0
   -2.7406   -2.7994    2.3561 H   0  0  0  0  0  0  0  0  0  0  0  0
    0.1779   -2.5629   -1.6071 H   0  0  0  0  0  0  0  0  0  0  0  0
    0.2060   -4.6801   -1.0229 H   0  0  0  0  0  0  0  0  0  0  0  0
   -1.3380   -4.3313   -0.2346 H   0  0  0  0  0  0  0  0  0  0  0  0
    0.0102   -4.0040    1.9776 H   0  0  0  0  0  0  0  0  0  0  0  0
    1.4641   -4.5457    1.0558 H   0  0  0  0  0  0  0  0  0  0  0  0
    0.0619   -5.6508    1.2598 H   0  0  0  0  0  0  0  0  0  0  0  0
    0.1797   -1.4085    2.0088 H   0  0  0  0  0  0  0  0  0  0  0  0
    2.1719   -0.4481    3.0595 H   0  0  0  0  0  0  0  0  0  0  0  0
    4.3248   -0.4440    1.8928 H   0  0  0  0  0  0  0  0  0  0  0  0
    4.8999   -1.9983   -1.4769 H   0  0  0  0  0  0  0  0  0  0  0  0
    4.6524    1.3064   -2.1957 H   0  0  0  0  0  0  0  0  0  0  0  0
    3.6855    3.5679   -2.0629 H   0  0  0  0  0  0  0  0  0  0  0  0
    5.1052    3.9341    1.9908 H   0  0  0  0  0  0  0  0  0  0  0  0
    6.0852    1.6822    1.8515 H   0  0  0  0  0  0  0  0  0  0  0  0
    2.5064   -2.3985   -1.4871 H   0  0  0  0  0  0  0  0  0  0  0  0
  1  2  1  0
  2  3  1  0
  3  4  1  0
  4  5  1  0
  5  6  1  0
  6  7  1  0
  7  8  2  0
  8  9  1  0
  9 10  2  0
 10 11  1  0
 11 12  2  0
  4 13  1  0
 13 14  1  0
 14 15  1  0
 14 16  2  0
 16 17  1  0
 17 18  1  0
 18 19  1  0
 17 20  1  0
 20 21  2  0
 21 22  1  0
 22 23  2  0
 23 24  1  0
 24 25  1  0
 25 26  1  0
 26 27  2  0
 26 28  2  0
 26 29  1  0
 29 30  2  0
 30 31  1  0
 31 32  2  0
 32 33  1  0
 33 34  3  0
 32 35  1  0
 35 36  2  0
 24 37  2  0
 16 38  1  0
 38 39  2  0
 38 40  1  0
 12  7  1  0
 36 29  1  0
 37 20  1  0
 40  4  1  0
  1 41  1  0
  1 42  1  0
  1 43  1  0
  2 44  1  0
  2 45  1  0
  3 46  1  0
  3 47  1  0
  5 48  1  0
  5 49  1  0
  6 50  1  0
  6 51  1  0
  8 52  1  0
  9 53  1  0
 10 54  1  0
 11 55  1  0
 12 56  1  0
 15 57  1  0
 17 58  1  0
 18 59  1  0
 18 60  1  0
 19 61  1  0
 19 62  1  0
 19 63  1  0
 21 64  1  0
 22 65  1  0
 23 66  1  0
 25 67  1  0
 30 68  1  0
 31 69  1  0
 35 70  1  0
 36 71  1  0
 37 72  1  0
M  END
$$$$
