
     RDKit          3D

 64 68  0  0  0  0  0  0  0  0999 V2000
    2.7621    1.9076   -3.4839 C   0  0  0  0  0  0  0  0  0  0  0  0
    3.3030    0.9387   -2.4309 C   0  0  0  0  0  0  0  0  0  0  0  0
    3.4844    1.6203   -1.0520 C   0  0  0  0  0  0  0  0  0  0  0  0
    2.1503    1.9302   -0.3956 C   0  0  0  0  0  0  0  0  0  0  0  0
    1.7700    3.2651   -0.1727 C   0  0  0  0  0  0  0  0  0  0  0  0
    0.5541    3.5605    0.4466 C   0  0  0  0  0  0  0  0  0  0  0  0
   -0.3008    2.5305    0.8418 C   0  0  0  0  0  0  0  0  0  0  0  0
    0.0452    1.1930    0.6076 C   0  0  0  0  0  0  0  0  0  0  0  0
   -0.8439    0.1503    1.0407 N   0  0  0  0  0  0  0  0  0  0  0  0
   -1.0804   -1.0611    0.3039 C   0  0  0  0  0  0  0  0  0  0  0  0
   -0.5462   -1.2388   -0.8247 O   0  0  0  0  0  0  0  0  0  0  0  0
   -1.9640   -2.1342    0.8791 C   0  0  0  0  0  0  0  0  0  0  0  0
   -3.0160   -2.6353   -0.1272 C   0  0  0  0  0  0  0  0  0  0  0  0
   -3.9784   -1.5953   -0.5260 N   0  0  0  0  0  0  0  0  0  0  0  0
   -4.9529   -1.2670    0.5310 C   0  0  0  0  0  0  0  0  0  0  0  0
   -4.6857    0.0858    1.1563 C   0  0  0  0  0  0  0  0  0  0  0  0
   -5.6802    0.9421    0.9375 C   0  0  0  0  0  0  0  0  0  0  0  0
   -6.6992    0.2656    0.1648 C   0  0  0  0  0  0  0  0  0  0  0  0
   -7.9243    0.7476   -0.2943 C   0  0  0  0  0  0  0  0  0  0  0  0
   -8.7498   -0.1256   -1.0224 C   0  0  0  0  0  0  0  0  0  0  0  0
   -8.3384   -1.4507   -1.2717 C   0  0  0  0  0  0  0  0  0  0  0  0
   -7.0987   -1.9101   -0.7951 C   0  0  0  0  0  0  0  0  0  0  0  0
   -6.2928   -1.0236   -0.0779 C   0  0  0  0  0  0  0  0  0  0  0  0
    1.2820    0.8981    0.0075 C   0  0  0  0  0  0  0  0  0  0  0  0
    4.4005    0.8748   -0.0744 C   0  0  0  0  0  0  0  0  0  0  0  0
    5.1523    1.6253    0.8586 C   0  0  0  0  0  0  0  0  0  0  0  0
    5.0798    3.0161    0.8669 O   0  0  0  0  0  0  0  0  0  0  0  0
    5.9354    1.0234    1.7476 O   0  0  0  0  0  0  0  0  0  0  0  0
    6.0532   -0.2941    1.8327 C   0  0  0  0  0  0  0  0  0  0  0  0
    6.9024   -0.8511    2.7956 C   0  0  0  0  0  0  0  0  0  0  0  0
    7.0292   -2.2385    2.9017 C   0  0  0  0  0  0  0  0  0  0  0  0
    6.3075   -3.0755    2.0470 C   0  0  0  0  0  0  0  0  0  0  0  0
    5.4567   -2.5293    1.0812 C   0  0  0  0  0  0  0  0  0  0  0  0
    5.3237   -1.1318    0.9641 C   0  0  0  0  0  0  0  0  0  0  0  0
    4.4814   -0.5374    0.0088 C   0  0  0  0  0  0  0  0  0  0  0  0
    3.8046   -1.2709   -0.7611 O   0  0  0  0  0  0  0  0  0  0  0  0
    2.6555    1.3788   -4.4545 H   0  0  0  0  0  0  0  0  0  0  0  0
    1.7655    2.2936   -3.1818 H   0  0  0  0  0  0  0  0  0  0  0  0
    3.4599    2.7606   -3.6225 H   0  0  0  0  0  0  0  0  0  0  0  0
    2.5962    0.0849   -2.3667 H   0  0  0  0  0  0  0  0  0  0  0  0
    4.2847    0.5559   -2.7862 H   0  0  0  0  0  0  0  0  0  0  0  0
    3.9977    2.5806   -1.2832 H   0  0  0  0  0  0  0  0  0  0  0  0
    2.4174    4.0802   -0.4712 H   0  0  0  0  0  0  0  0  0  0  0  0
    0.2739    4.5913    0.6216 H   0  0  0  0  0  0  0  0  0  0  0  0
   -1.2411    2.7737    1.3209 H   0  0  0  0  0  0  0  0  0  0  0  0
   -1.4244    0.3321    1.8898 H   0  0  0  0  0  0  0  0  0  0  0  0
   -2.4674   -1.7764    1.8013 H   0  0  0  0  0  0  0  0  0  0  0  0
   -1.3193   -2.9899    1.1722 H   0  0  0  0  0  0  0  0  0  0  0  0
   -3.5533   -3.5087    0.3036 H   0  0  0  0  0  0  0  0  0  0  0  0
   -2.5023   -3.0110   -1.0382 H   0  0  0  0  0  0  0  0  0  0  0  0
   -3.4797   -0.7441   -0.8776 H   0  0  0  0  0  0  0  0  0  0  0  0
   -5.0336   -2.0524    1.3154 H   0  0  0  0  0  0  0  0  0  0  0  0
   -3.8032    0.3367    1.7262 H   0  0  0  0  0  0  0  0  0  0  0  0
   -5.7147    1.9640    1.2912 H   0  0  0  0  0  0  0  0  0  0  0  0
   -8.2328    1.7655   -0.0944 H   0  0  0  0  0  0  0  0  0  0  0  0
   -9.7064    0.2203   -1.3918 H   0  0  0  0  0  0  0  0  0  0  0  0
   -8.9806   -2.1180   -1.8317 H   0  0  0  0  0  0  0  0  0  0  0  0
   -6.7761   -2.9264   -0.9806 H   0  0  0  0  0  0  0  0  0  0  0  0
    1.5795   -0.1315   -0.1227 H   0  0  0  0  0  0  0  0  0  0  0  0
    5.6128    3.5588    1.5354 H   0  0  0  0  0  0  0  0  0  0  0  0
    7.4629   -0.2086    3.4630 H   0  0  0  0  0  0  0  0  0  0  0  0
    7.6866   -2.6655    3.6480 H   0  0  0  0  0  0  0  0  0  0  0  0
    6.4076   -4.1498    2.1330 H   0  0  0  0  0  0  0  0  0  0  0  0
    4.9084   -3.1991    0.4302 H   0  0  0  0  0  0  0  0  0  0  0  0
  1  2  1  0
  2  3  1  0
  3  4  1  0
  4  5  2  0
  5  6  1  0
  6  7  2  0
  7  8  1  0
  8  9  1  0
  9 10  1  0
 10 11  2  0
 10 12  1  0
 12 13  1  0
 13 14  1  0
 14 15  1  0
 15 16  1  0
 16 17  2  0
 17 18  1  0
 18 19  2  0
 19 20  1  0
 20 21  2  0
 21 22  1  0
 22 23  2  0
  8 24  2  0
  3 25  1  0
 25 26  2  0
 26 27  1  0
 26 28  1  0
 28 29  1  0
 29 30  2  0
 30 31  1  0
 31 32  2  0
 32 33  1  0
 33 34  2  0
 34 35  1  0
 35 36  2  0
 23 15  1  0
 23 18  1  0
 24  4  1  0
 34 29  1  0
 35 25  1  0
  1 37  1  0
  1 38  1  0
  1 39  1  0
  2 40  1  0
  2 41  1  0
  3 42  1  0
  5 43  1  0
  6 44  1  0
  7 45  1  0
  9 46  1  0
 12 47  1  0
 12 48  1  0
 13 49  1  0
 13 50  1  0
 14 51  1  0
 15 52  1  0
 16 53  1  0
 17 54  1  0
 19 55  1  0
 20 56  1  0
 21 57  1  0
 22 58  1  0
 24 59  1  0
 27 60  1  0
 30 61  1  0
 31 62  1  0
 32 63  1  0
 33 64  1  0
M  END
$$$$
