
     RDKit          3D

 86 90  0  0  0  0  0  0  0  0999 V2000
   -1.9177    1.2633   -0.5226 O   0  0  0  0  0  0  0  0  0  0  0  0
   -0.9525    1.2776    0.4948 C   0  0  2  0  0  0  0  0  0  0  0  0
    0.3729    1.8842   -0.0391 C   0  0  1  0  0  0  0  0  0  0  0  0
    1.3190    1.9964    0.9950 O   0  0  0  0  0  0  0  0  0  0  0  0
    0.9691    1.0753   -1.2135 C   0  0  1  0  0  0  0  0  0  0  0  0
    2.1064    1.8429   -1.9377 C   0  0  0  0  0  0  0  0  0  0  0  0
    1.5917    3.0465   -2.6889 C   0  0  0  0  0  0  0  0  0  0  0  0
    1.7607    4.3405   -2.1666 C   0  0  0  0  0  0  0  0  0  0  0  0
    1.2607    5.4493   -2.8562 C   0  0  0  0  0  0  0  0  0  0  0  0
    0.5883    5.2756   -4.0689 C   0  0  0  0  0  0  0  0  0  0  0  0
    0.4139    3.9923   -4.5940 C   0  0  0  0  0  0  0  0  0  0  0  0
    0.9120    2.8807   -3.9078 C   0  0  0  0  0  0  0  0  0  0  0  0
    1.3941   -0.2627   -0.7495 N   0  0  0  0  0  0  0  0  0  0  0  0
    2.8122   -0.5593   -0.4311 C   0  0  0  0  0  0  0  0  0  0  0  0
    3.0441   -1.8385    0.4186 C   0  0  0  0  0  0  0  0  0  0  0  0
    2.4545   -1.7101    1.8499 C   0  0  0  0  0  0  0  0  0  0  0  0
    3.2281   -2.5071    2.9178 C   0  0  0  0  0  0  0  0  0  0  0  0
    3.8219   -3.7904    2.3337 C   0  0  0  0  0  0  0  0  0  0  0  0
    4.8299   -3.4877    1.2081 C   0  0  0  0  0  0  0  0  0  0  0  0
    4.5520   -2.1593    0.4759 C   0  0  0  0  0  0  0  0  0  0  0  0
    0.3894   -1.2969   -0.8069 C   0  0  0  0  0  0  0  0  0  0  0  0
    0.4832   -2.2563   -1.6843 N   0  0  0  0  0  0  0  0  0  0  0  0
    1.5116   -2.3661   -2.6340 C   0  0  0  0  0  0  0  0  0  0  0  0
    2.3581   -2.4576   -3.4177 N   0  0  0  0  0  0  0  0  0  0  0  0
   -0.7835   -1.2077    0.0490 N   0  0  0  0  0  0  0  0  0  0  0  0
   -1.7852   -2.3101   -0.0122 C   0  0  0  0  0  0  0  0  0  0  0  0
   -2.9423   -2.0939   -1.0278 C   0  0  0  0  0  0  0  0  0  0  0  0
   -4.0900   -1.2502   -0.4326 C   0  0  0  0  0  0  0  0  0  0  0  0
   -5.2508   -1.1045   -1.4229 C   0  0  0  0  0  0  0  0  0  0  0  0
   -4.7662   -0.5091   -2.7479 C   0  0  0  0  0  0  0  0  0  0  0  0
   -3.6652   -1.3791   -3.3613 C   0  0  0  0  0  0  0  0  0  0  0  0
   -2.4841   -1.5440   -2.3963 C   0  0  0  0  0  0  0  0  0  0  0  0
   -0.7765   -0.1495    1.1055 C   0  0  2  0  0  0  0  0  0  0  0  0
   -1.7497   -0.4168    2.2872 C   0  0  0  0  0  0  0  0  0  0  0  0
   -1.5444    0.5394    3.4397 C   0  0  0  0  0  0  0  0  0  0  0  0
   -2.4940    1.5383    3.7172 C   0  0  0  0  0  0  0  0  0  0  0  0
   -2.2890    2.4316    4.7732 C   0  0  0  0  0  0  0  0  0  0  0  0
   -1.1386    2.3341    5.5605 C   0  0  0  0  0  0  0  0  0  0  0  0
   -0.1915    1.3417    5.2945 C   0  0  0  0  0  0  0  0  0  0  0  0
   -0.3921    0.4461    4.2402 C   0  0  0  0  0  0  0  0  0  0  0  0
   -2.2036    2.2025   -0.6715 H   0  0  0  0  0  0  0  0  0  0  0  0
   -1.2997    1.9719    1.2913 H   0  0  0  0  0  0  0  0  0  0  0  0
    0.1290    2.9054   -0.4117 H   0  0  0  0  0  0  0  0  0  0  0  0
    1.0107    2.7272    1.5921 H   0  0  0  0  0  0  0  0  0  0  0  0
    0.1690    0.9389   -1.9771 H   0  0  0  0  0  0  0  0  0  0  0  0
    2.8888    2.1561   -1.2135 H   0  0  0  0  0  0  0  0  0  0  0  0
    2.5932    1.1666   -2.6735 H   0  0  0  0  0  0  0  0  0  0  0  0
    2.2724    4.4897   -1.2239 H   0  0  0  0  0  0  0  0  0  0  0  0
    1.3924    6.4434   -2.4490 H   0  0  0  0  0  0  0  0  0  0  0  0
    0.2011    6.1350   -4.6008 H   0  0  0  0  0  0  0  0  0  0  0  0
   -0.1090    3.8587   -5.5322 H   0  0  0  0  0  0  0  0  0  0  0  0
    0.7667    1.8910   -4.3233 H   0  0  0  0  0  0  0  0  0  0  0  0
    3.3711   -0.6590   -1.3854 H   0  0  0  0  0  0  0  0  0  0  0  0
    3.2560    0.2992    0.1167 H   0  0  0  0  0  0  0  0  0  0  0  0
    2.5604   -2.7030   -0.0835 H   0  0  0  0  0  0  0  0  0  0  0  0
    1.4104   -2.0888    1.8325 H   0  0  0  0  0  0  0  0  0  0  0  0
    2.4325   -0.6463    2.1719 H   0  0  0  0  0  0  0  0  0  0  0  0
    4.0500   -1.8805    3.3295 H   0  0  0  0  0  0  0  0  0  0  0  0
    2.5461   -2.7600    3.7584 H   0  0  0  0  0  0  0  0  0  0  0  0
    4.3255   -4.3681    3.1387 H   0  0  0  0  0  0  0  0  0  0  0  0
    2.9961   -4.4200    1.9343 H   0  0  0  0  0  0  0  0  0  0  0  0
    5.8568   -3.4497    1.6326 H   0  0  0  0  0  0  0  0  0  0  0  0
    4.8063   -4.3240    0.4758 H   0  0  0  0  0  0  0  0  0  0  0  0
    5.0827   -1.3331    0.9996 H   0  0  0  0  0  0  0  0  0  0  0  0
    4.9709   -2.2269   -0.5522 H   0  0  0  0  0  0  0  0  0  0  0  0
   -2.2223   -2.5380    0.9753 H   0  0  0  0  0  0  0  0  0  0  0  0
   -1.2719   -3.2629   -0.2662 H   0  0  0  0  0  0  0  0  0  0  0  0
   -3.3702   -3.1051   -1.2179 H   0  0  0  0  0  0  0  0  0  0  0  0
   -4.4730   -1.7384    0.4899 H   0  0  0  0  0  0  0  0  0  0  0  0
   -3.7366   -0.2418   -0.1569 H   0  0  0  0  0  0  0  0  0  0  0  0
   -6.0258   -0.4396   -0.9842 H   0  0  0  0  0  0  0  0  0  0  0  0
   -5.7162   -2.0983   -1.6052 H   0  0  0  0  0  0  0  0  0  0  0  0
   -5.6204   -0.4458   -3.4557 H   0  0  0  0  0  0  0  0  0  0  0  0
   -4.3813    0.5210   -2.5796 H   0  0  0  0  0  0  0  0  0  0  0  0
   -4.0798   -2.3787   -3.6186 H   0  0  0  0  0  0  0  0  0  0  0  0
   -3.3066   -0.9068   -4.3013 H   0  0  0  0  0  0  0  0  0  0  0  0
   -1.9777   -0.5647   -2.2778 H   0  0  0  0  0  0  0  0  0  0  0  0
   -1.7694   -2.2548   -2.8599 H   0  0  0  0  0  0  0  0  0  0  0  0
    0.2187   -0.1695    1.5835 H   0  0  0  0  0  0  0  0  0  0  0  0
   -2.8013   -0.3758    1.9411 H   0  0  0  0  0  0  0  0  0  0  0  0
   -1.5613   -1.4321    2.6963 H   0  0  0  0  0  0  0  0  0  0  0  0
   -3.3869    1.6310    3.1115 H   0  0  0  0  0  0  0  0  0  0  0  0
   -3.0215    3.2011    4.9799 H   0  0  0  0  0  0  0  0  0  0  0  0
   -0.9814    3.0271    6.3768 H   0  0  0  0  0  0  0  0  0  0  0  0
    0.6987    1.2664    5.9056 H   0  0  0  0  0  0  0  0  0  0  0  0
    0.3499   -0.3190    4.0467 H   0  0  0  0  0  0  0  0  0  0  0  0
  1  2  1  0
  2  3  1  0
  3  4  1  0
  3  5  1  0
  5  6  1  0
  6  7  1  0
  7  8  2  0
  8  9  1  0
  9 10  2  0
 10 11  1  0
 11 12  2  0
  5 13  1  0
 13 14  1  0
 14 15  1  0
 15 16  1  0
 16 17  1  0
 17 18  1  0
 18 19  1  0
 19 20  1  0
 13 21  1  0
 21 22  2  3
 22 23  1  0
 23 24  3  0
 21 25  1  0
 25 26  1  0
 26 27  1  0
 27 28  1  0
 28 29  1  0
 29 30  1  0
 30 31  1  0
 31 32  1  0
 25 33  1  0
 33 34  1  0
 34 35  1  0
 35 36  2  0
 36 37  1  0
 37 38  2  0
 38 39  1  0
 39 40  2  0
 12  7  1  0
 20 15  1  0
 32 27  1  0
 33  2  1  0
 40 35  1  0
  1 41  1  0
  2 42  1  1
  3 43  1  6
  4 44  1  0
  5 45  1  6
  6 46  1  0
  6 47  1  0
  8 48  1  0
  9 49  1  0
 10 50  1  0
 11 51  1  0
 12 52  1  0
 14 53  1  0
 14 54  1  0
 15 55  1  0
 16 56  1  0
 16 57  1  0
 17 58  1  0
 17 59  1  0
 18 60  1  0
 18 61  1  0
 19 62  1  0
 19 63  1  0
 20 64  1  0
 20 65  1  0
 26 66  1  0
 26 67  1  0
 27 68  1  0
 28 69  1  0
 28 70  1  0
 29 71  1  0
 29 72  1  0
 30 73  1  0
 30 74  1  0
 31 75  1  0
 31 76  1  0
 32 77  1  0
 32 78  1  0
 33 79  1  1
 34 80  1  0
 34 81  1  0
 36 82  1  0
 37 83  1  0
 38 84  1  0
 39 85  1  0
 40 86  1  0
M  END
$$$$
