
     RDKit          3D

 71 74  0  0  0  0  0  0  0  0999 V2000
    1.3506   -2.3038    1.6057 C   0  0  0  0  0  0  0  0  0  0  0  0
    0.6341   -1.1343    0.9069 C   0  0  0  0  0  0  0  0  0  0  0  0
    0.1667   -1.5584   -0.4990 C   0  0  0  0  0  0  0  0  0  0  0  0
    1.4305    0.2361    0.9456 C   0  0  0  0  0  0  0  0  0  0  0  0
    2.9658    0.0915    0.7174 C   0  0  0  0  0  0  0  0  0  0  0  0
    3.3702   -0.4289   -0.6711 C   0  0  0  0  0  0  0  0  0  0  0  0
    4.8310   -0.2092   -0.9052 C   0  0  0  0  0  0  0  0  0  0  0  0
    5.7886   -1.0668   -0.4735 N   0  0  0  0  0  0  0  0  0  0  0  0
    7.0278   -0.5951   -0.7635 C   0  0  0  0  0  0  0  0  0  0  0  0
    8.2168   -1.2559   -0.4500 C   0  0  0  0  0  0  0  0  0  0  0  0
    9.4372   -0.6532   -0.8021 C   0  0  0  0  0  0  0  0  0  0  0  0
    9.4547    0.5947   -1.4570 C   0  0  0  0  0  0  0  0  0  0  0  0
    8.2524    1.2510   -1.7655 C   0  0  0  0  0  0  0  0  0  0  0  0
    7.0575    0.6320   -1.4076 C   0  0  0  0  0  0  0  0  0  0  0  0
    5.4857    1.1730   -1.6356 S   0  0  0  0  0  0  0  0  0  0  0  0
    1.2188    0.9183    2.3290 C   0  0  0  0  0  0  0  0  0  0  0  0
   -0.1793    1.4554    2.4542 C   0  0  0  0  0  0  0  0  0  0  0  0
   -0.6975    1.5828    3.5957 O   0  0  0  0  0  0  0  0  0  0  0  0
   -0.9094    1.8983    1.2497 C   0  0  0  0  0  0  0  0  0  0  0  0
   -2.5979    2.5234    1.4150 S   0  0  0  0  0  0  0  0  0  0  0  0
   -3.3793    0.9803    0.8769 C   0  0  0  0  0  0  0  0  0  0  0  0
   -3.0908   -0.1584    1.6426 C   0  0  0  0  0  0  0  0  0  0  0  0
   -3.3912   -1.4432    1.1860 C   0  0  0  0  0  0  0  0  0  0  0  0
   -2.9636   -2.6336    2.0063 C   0  0  0  0  0  0  0  0  0  0  0  0
   -4.0599   -1.5943   -0.0429 C   0  0  0  0  0  0  0  0  0  0  0  0
   -4.3408   -2.9583   -0.6265 C   0  0  0  0  0  0  0  0  0  0  0  0
   -3.1831   -3.4443   -1.2459 O   0  0  0  0  0  0  0  0  0  0  0  0
   -4.4442   -0.4530   -0.7640 C   0  0  0  0  0  0  0  0  0  0  0  0
   -4.1854    0.8629   -0.2988 C   0  0  0  0  0  0  0  0  0  0  0  0
   -4.8577    2.0890   -0.9960 C   0  0  0  0  0  0  0  0  0  0  0  0
   -5.8889    1.6726   -2.0817 C   0  0  0  0  0  0  0  0  0  0  0  0
   -3.8139    2.9772   -1.7023 C   0  0  0  0  0  0  0  0  0  0  0  0
   -5.6481    2.9243    0.0404 C   0  0  0  0  0  0  0  0  0  0  0  0
   -0.3098    1.7898    0.0569 C   0  0  0  0  0  0  0  0  0  0  0  0
   -0.8990    2.3169   -1.0836 O   0  0  0  0  0  0  0  0  0  0  0  0
    0.9207    1.1260   -0.0601 O   0  0  0  0  0  0  0  0  0  0  0  0
    1.6825   -2.0161    2.6238 H   0  0  0  0  0  0  0  0  0  0  0  0
    2.2287   -2.6487    1.0240 H   0  0  0  0  0  0  0  0  0  0  0  0
    0.6540   -3.1631    1.7122 H   0  0  0  0  0  0  0  0  0  0  0  0
   -0.3098   -0.9929    1.4751 H   0  0  0  0  0  0  0  0  0  0  0  0
   -0.4173   -2.5016   -0.4350 H   0  0  0  0  0  0  0  0  0  0  0  0
   -0.5073   -0.7943   -0.9380 H   0  0  0  0  0  0  0  0  0  0  0  0
    1.0113   -1.7279   -1.1903 H   0  0  0  0  0  0  0  0  0  0  0  0
    3.4192   -0.5533    1.5010 H   0  0  0  0  0  0  0  0  0  0  0  0
    3.4234    1.0995    0.8396 H   0  0  0  0  0  0  0  0  0  0  0  0
    2.7969    0.0918   -1.4671 H   0  0  0  0  0  0  0  0  0  0  0  0
    3.1778   -1.5166   -0.7469 H   0  0  0  0  0  0  0  0  0  0  0  0
    8.2020   -2.2135    0.0545 H   0  0  0  0  0  0  0  0  0  0  0  0
   10.3694   -1.1506   -0.5678 H   0  0  0  0  0  0  0  0  0  0  0  0
   10.3998    1.0502   -1.7227 H   0  0  0  0  0  0  0  0  0  0  0  0
    8.2555    2.2104   -2.2663 H   0  0  0  0  0  0  0  0  0  0  0  0
    1.9080    1.7828    2.4448 H   0  0  0  0  0  0  0  0  0  0  0  0
    1.4296    0.2118    3.1593 H   0  0  0  0  0  0  0  0  0  0  0  0
   -2.5571   -0.0443    2.5765 H   0  0  0  0  0  0  0  0  0  0  0  0
   -2.3589   -3.3274    1.3856 H   0  0  0  0  0  0  0  0  0  0  0  0
   -3.8588   -3.1643    2.3920 H   0  0  0  0  0  0  0  0  0  0  0  0
   -2.3397   -2.3329    2.8749 H   0  0  0  0  0  0  0  0  0  0  0  0
   -5.1663   -2.9047   -1.3714 H   0  0  0  0  0  0  0  0  0  0  0  0
   -4.6723   -3.6598    0.1699 H   0  0  0  0  0  0  0  0  0  0  0  0
   -3.4114   -4.3474   -1.5880 H   0  0  0  0  0  0  0  0  0  0  0  0
   -4.9627   -0.6226   -1.6940 H   0  0  0  0  0  0  0  0  0  0  0  0
   -5.3903    1.1701   -2.9386 H   0  0  0  0  0  0  0  0  0  0  0  0
   -6.6664    1.0018   -1.6555 H   0  0  0  0  0  0  0  0  0  0  0  0
   -6.4126    2.5604   -2.4996 H   0  0  0  0  0  0  0  0  0  0  0  0
   -3.1722    3.5228   -0.9880 H   0  0  0  0  0  0  0  0  0  0  0  0
   -4.3122    3.7554   -2.3206 H   0  0  0  0  0  0  0  0  0  0  0  0
   -3.1792    2.3617   -2.3747 H   0  0  0  0  0  0  0  0  0  0  0  0
   -6.3503    2.2733    0.6048 H   0  0  0  0  0  0  0  0  0  0  0  0
   -6.2403    3.7218   -0.4589 H   0  0  0  0  0  0  0  0  0  0  0  0
   -4.9934    3.4397    0.7651 H   0  0  0  0  0  0  0  0  0  0  0  0
   -0.4488    2.2237   -1.9857 H   0  0  0  0  0  0  0  0  0  0  0  0
  1  2  1  0
  2  3  1  0
  2  4  1  0
  4  5  1  0
  5  6  1  0
  6  7  1  0
  7  8  2  0
  8  9  1  0
  9 10  2  0
 10 11  1  0
 11 12  2  0
 12 13  1  0
 13 14  2  0
 14 15  1  0
  4 16  1  0
 16 17  1  0
 17 18  2  0
 17 19  1  0
 19 20  1  0
 20 21  1  0
 21 22  2  0
 22 23  1  0
 23 24  1  0
 23 25  2  0
 25 26  1  0
 26 27  1  0
 25 28  1  0
 28 29  2  0
 29 30  1  0
 30 31  1  0
 30 32  1  0
 30 33  1  0
 19 34  2  0
 34 35  1  0
 34 36  1  0
 14  9  1  0
 15  7  1  0
 29 21  1  0
 36  4  1  0
  1 37  1  0
  1 38  1  0
  1 39  1  0
  2 40  1  0
  3 41  1  0
  3 42  1  0
  3 43  1  0
  5 44  1  0
  5 45  1  0
  6 46  1  0
  6 47  1  0
 10 48  1  0
 11 49  1  0
 12 50  1  0
 13 51  1  0
 16 52  1  0
 16 53  1  0
 22 54  1  0
 24 55  1  0
 24 56  1  0
 24 57  1  0
 26 58  1  0
 26 59  1  0
 27 60  1  0
 28 61  1  0
 31 62  1  0
 31 63  1  0
 31 64  1  0
 32 65  1  0
 32 66  1  0
 32 67  1  0
 33 68  1  0
 33 69  1  0
 33 70  1  0
 35 71  1  0
M  END
$$$$
