
     RDKit          3D

 79 80  0  0  0  0  0  0  0  0999 V2000
    6.0807   -2.0255   -1.9925 C   0  0  0  0  0  0  0  0  0  0  0  0
    6.4843   -2.0815   -0.5079 C   0  0  0  0  0  0  0  0  0  0  0  0
    7.9821   -1.7528   -0.3830 C   0  0  0  0  0  0  0  0  0  0  0  0
    5.6035   -1.1239    0.3499 C   0  0  2  0  0  0  0  0  0  0  0  0
    5.9910   -1.1373    1.8376 C   0  0  0  0  0  0  0  0  0  0  0  0
    4.1393   -1.4787    0.2251 C   0  0  0  0  0  0  0  0  0  0  0  0
    3.7389   -2.6057    0.6276 O   0  0  0  0  0  0  0  0  0  0  0  0
    3.2142   -0.5363   -0.3426 N   0  0  0  0  0  0  0  0  0  0  0  0
    1.8272   -0.8319   -0.5817 C   0  0  0  0  0  0  0  0  0  0  0  0
    1.4190   -2.0237   -0.5341 O   0  0  0  0  0  0  0  0  0  0  0  0
    0.8419    0.2625   -0.9352 C   0  0  2  0  0  0  0  0  0  0  0  0
    1.1489    0.8149   -2.1916 O   0  0  0  0  0  0  0  0  0  0  0  0
    0.7125    1.3701    0.1455 C   0  0  2  0  0  0  0  0  0  0  0  0
    1.9260    2.0754    0.2414 O   0  0  0  0  0  0  0  0  0  0  0  0
    0.3153    0.8431    1.5561 C   0  0  1  0  0  0  0  0  0  0  0  0
    0.3671    1.9213    2.4561 O   0  0  0  0  0  0  0  0  0  0  0  0
   -1.0987    0.1829    1.6380 C   0  0  1  0  0  0  0  0  0  0  0  0
   -2.0347    0.8257    0.7657 O   0  0  0  0  0  0  0  0  0  0  0  0
   -2.6495    2.0714    0.9741 C   0  0  0  0  0  0  0  0  0  0  0  0
   -3.3353    2.6488   -0.0988 C   0  0  0  0  0  0  0  0  0  0  0  0
   -3.9623    3.8900    0.0386 C   0  0  0  0  0  0  0  0  0  0  0  0
   -3.9143    4.5825    1.2626 C   0  0  0  0  0  0  0  0  0  0  0  0
   -4.5790    5.9001    1.4343 C   0  0  0  0  0  0  0  0  0  0  0  0
   -4.7398    6.7939    0.3588 C   0  0  0  0  0  0  0  0  0  0  0  0
   -5.3677    8.0228    0.5727 C   0  0  0  0  0  0  0  0  0  0  0  0
   -5.8252    8.3586    1.8467 C   0  0  0  0  0  0  0  0  0  0  0  0
   -5.6421    7.4571    2.8956 C   0  0  0  0  0  0  0  0  0  0  0  0
   -5.0295    6.2647    2.6691 N   0  0  0  0  0  0  0  0  0  0  0  0
   -3.2436    3.9900    2.3470 C   0  0  0  0  0  0  0  0  0  0  0  0
   -2.6160    2.7488    2.2067 C   0  0  0  0  0  0  0  0  0  0  0  0
   -1.0373   -1.3000    1.3490 C   0  0  0  0  0  0  0  0  0  0  0  0
   -0.3842   -2.0376    2.1367 O   0  0  0  0  0  0  0  0  0  0  0  0
   -1.7203   -1.8766    0.2189 N   0  0  0  0  0  0  0  0  0  0  0  0
   -1.5769   -3.2486   -0.1869 C   0  0  0  0  0  0  0  0  0  0  0  0
   -0.9106   -4.0542    0.5184 O   0  0  0  0  0  0  0  0  0  0  0  0
   -2.1733   -3.6992   -1.5027 C   0  0  1  0  0  0  0  0  0  0  0  0
   -1.2501   -3.2756   -2.6560 C   0  0  0  0  0  0  0  0  0  0  0  0
   -2.5416   -5.2183   -1.5159 C   0  0  0  0  0  0  0  0  0  0  0  0
   -3.6483   -5.5158   -2.5399 C   0  0  0  0  0  0  0  0  0  0  0  0
   -1.3406   -6.1497   -1.7658 C   0  0  0  0  0  0  0  0  0  0  0  0
    6.7272   -2.6987   -2.5954 H   0  0  0  0  0  0  0  0  0  0  0  0
    6.1778   -0.9903   -2.3847 H   0  0  0  0  0  0  0  0  0  0  0  0
    5.0328   -2.3652   -2.1302 H   0  0  0  0  0  0  0  0  0  0  0  0
    6.3364   -3.1263   -0.1537 H   0  0  0  0  0  0  0  0  0  0  0  0
    8.1699   -0.6832   -0.6183 H   0  0  0  0  0  0  0  0  0  0  0  0
    8.3483   -1.9729    0.6410 H   0  0  0  0  0  0  0  0  0  0  0  0
    8.5773   -2.3807   -1.0802 H   0  0  0  0  0  0  0  0  0  0  0  0
    5.7563   -0.0854   -0.0194 H   0  0  0  0  0  0  0  0  0  0  0  0
    6.0160   -2.1770    2.2290 H   0  0  0  0  0  0  0  0  0  0  0  0
    5.2579   -0.5493    2.4315 H   0  0  0  0  0  0  0  0  0  0  0  0
    6.9844   -0.6663    1.9884 H   0  0  0  0  0  0  0  0  0  0  0  0
    3.5767    0.4077   -0.5985 H   0  0  0  0  0  0  0  0  0  0  0  0
   -0.1573   -0.2011   -1.0489 H   0  0  0  0  0  0  0  0  0  0  0  0
    2.0361    1.2538   -2.1309 H   0  0  0  0  0  0  0  0  0  0  0  0
   -0.0794    2.0710   -0.2090 H   0  0  0  0  0  0  0  0  0  0  0  0
    1.7087    3.0068    0.5086 H   0  0  0  0  0  0  0  0  0  0  0  0
    1.0896    0.1022    1.8670 H   0  0  0  0  0  0  0  0  0  0  0  0
    0.4692    1.5380    3.3668 H   0  0  0  0  0  0  0  0  0  0  0  0
   -1.4739    0.2457    2.6816 H   0  0  0  0  0  0  0  0  0  0  0  0
   -3.3816    2.1307   -1.0485 H   0  0  0  0  0  0  0  0  0  0  0  0
   -4.5022    4.2904   -0.8089 H   0  0  0  0  0  0  0  0  0  0  0  0
   -4.3659    6.5624   -0.6295 H   0  0  0  0  0  0  0  0  0  0  0  0
   -5.4934    8.7173   -0.2479 H   0  0  0  0  0  0  0  0  0  0  0  0
   -6.3113    9.3098    2.0209 H   0  0  0  0  0  0  0  0  0  0  0  0
   -5.9863    7.7048    3.8908 H   0  0  0  0  0  0  0  0  0  0  0  0
   -3.1953    4.4921    3.3055 H   0  0  0  0  0  0  0  0  0  0  0  0
   -2.1216    2.3293    3.0692 H   0  0  0  0  0  0  0  0  0  0  0  0
   -2.3093   -1.2609   -0.3842 H   0  0  0  0  0  0  0  0  0  0  0  0
   -3.1213   -3.1292   -1.6240 H   0  0  0  0  0  0  0  0  0  0  0  0
   -1.1487   -2.1691   -2.6735 H   0  0  0  0  0  0  0  0  0  0  0  0
   -1.6694   -3.5930   -3.6328 H   0  0  0  0  0  0  0  0  0  0  0  0
   -0.2359   -3.7123   -2.5353 H   0  0  0  0  0  0  0  0  0  0  0  0
   -2.9627   -5.4774   -0.5183 H   0  0  0  0  0  0  0  0  0  0  0  0
   -4.5475   -4.8990   -2.3281 H   0  0  0  0  0  0  0  0  0  0  0  0
   -3.9480   -6.5840   -2.4791 H   0  0  0  0  0  0  0  0  0  0  0  0
   -3.3033   -5.3053   -3.5739 H   0  0  0  0  0  0  0  0  0  0  0  0
   -0.9694   -6.0498   -2.8079 H   0  0  0  0  0  0  0  0  0  0  0  0
   -0.5072   -5.9308   -1.0690 H   0  0  0  0  0  0  0  0  0  0  0  0
   -1.6449   -7.2065   -1.6080 H   0  0  0  0  0  0  0  0  0  0  0  0
  1  2  1  0
  2  3  1  0
  2  4  1  0
  4  5  1  0
  4  6  1  0
  6  7  2  0
  6  8  1  0
  8  9  1  0
  9 10  2  0
  9 11  1  0
 11 12  1  0
 11 13  1  0
 13 14  1  0
 13 15  1  0
 15 16  1  0
 15 17  1  0
 17 18  1  0
 18 19  1  0
 19 20  2  0
 20 21  1  0
 21 22  2  0
 22 23  1  0
 23 24  2  0
 24 25  1  0
 25 26  2  0
 26 27  1  0
 27 28  2  0
 22 29  1  0
 29 30  2  0
 17 31  1  0
 31 32  2  0
 31 33  1  0
 33 34  1  0
 34 35  2  0
 34 36  1  0
 36 37  1  0
 36 38  1  0
 38 39  1  0
 38 40  1  0
 28 23  1  0
 30 19  1  0
  1 41  1  0
  1 42  1  0
  1 43  1  0
  2 44  1  0
  3 45  1  0
  3 46  1  0
  3 47  1  0
  4 48  1  6
  5 49  1  0
  5 50  1  0
  5 51  1  0
  8 52  1  0
 11 53  1  6
 12 54  1  0
 13 55  1  6
 14 56  1  0
 15 57  1  1
 16 58  1  0
 17 59  1  1
 20 60  1  0
 21 61  1  0
 24 62  1  0
 25 63  1  0
 26 64  1  0
 27 65  1  0
 29 66  1  0
 30 67  1  0
 33 68  1  0
 36 69  1  6
 37 70  1  0
 37 71  1  0
 37 72  1  0
 38 73  1  0
 39 74  1  0
 39 75  1  0
 39 76  1  0
 40 77  1  0
 40 78  1  0
 40 79  1  0
M  END
$$$$
