
     RDKit          3D

 86 88  0  0  0  0  0  0  0  0999 V2000
   -2.6982    4.4252    0.1323 C   0  0  0  0  0  0  0  0  0  0  0  0
   -4.0947    3.8067    0.2976 C   0  0  0  0  0  0  0  0  0  0  0  0
   -5.1340    4.5592   -0.5437 C   0  0  0  0  0  0  0  0  0  0  0  0
   -4.1011    2.2849    0.0215 C   0  0  0  0  0  0  0  0  0  0  0  0
   -3.8846    1.9079   -1.4648 C   0  0  0  0  0  0  0  0  0  0  0  0
   -3.4813    0.5017   -1.6717 N   0  0  0  0  0  0  0  0  0  0  0  0
   -2.1811    0.1658   -1.0579 C   0  0  0  0  0  0  0  0  0  0  0  0
   -1.4312   -0.8714   -1.9141 C   0  0  1  0  0  0  0  0  0  0  0  0
   -1.1347   -0.2886   -3.1578 O   0  0  0  0  0  0  0  0  0  0  0  0
   -0.1211   -1.3682   -1.2430 C   0  0  2  0  0  0  0  0  0  0  0  0
   -0.3925   -2.4362   -0.1587 C   0  0  0  0  0  0  0  0  0  0  0  0
    0.8831   -2.8687    0.5241 C   0  0  0  0  0  0  0  0  0  0  0  0
    1.8701   -3.5654   -0.1915 C   0  0  0  0  0  0  0  0  0  0  0  0
    3.0949   -3.8709    0.4086 C   0  0  0  0  0  0  0  0  0  0  0  0
    3.3476   -3.4876    1.7369 C   0  0  0  0  0  0  0  0  0  0  0  0
    4.5894   -3.7121    2.3486 O   0  0  0  0  0  0  0  0  0  0  0  0
    5.8473   -3.4877    1.7042 C   0  0  0  0  0  0  0  0  0  0  0  0
    6.4760   -2.1595    2.1604 C   0  0  0  0  0  0  0  0  0  0  0  0
    5.5153   -0.9579    2.1248 C   0  0  0  0  0  0  0  0  0  0  0  0
    5.0687   -0.5839    0.6996 C   0  0  0  0  0  0  0  0  0  0  0  0
    3.9464    0.4194    0.6861 C   0  0  0  0  0  0  0  0  0  0  0  0
    3.1838    0.5358    1.6848 O   0  0  0  0  0  0  0  0  0  0  0  0
    3.6759    1.1652   -0.5094 N   0  0  0  0  0  0  0  0  0  0  0  0
    2.3283    1.6554   -0.8134 C   0  0  1  0  0  0  0  0  0  0  0  0
    2.3825    2.9212   -1.7109 C   0  0  0  0  0  0  0  0  0  0  0  0
    0.9689    3.4518   -2.0104 C   0  0  0  0  0  0  0  0  0  0  0  0
    3.2130    4.0305   -1.0465 C   0  0  0  0  0  0  0  0  0  0  0  0
    1.5599    0.5317   -1.4603 C   0  0  0  0  0  0  0  0  0  0  0  0
    1.7855    0.2305   -2.6646 O   0  0  0  0  0  0  0  0  0  0  0  0
    0.6397   -0.2450   -0.6818 N   0  0  0  0  0  0  0  0  0  0  0  0
    2.3366   -2.8592    2.4722 C   0  0  0  0  0  0  0  0  0  0  0  0
    1.1199   -2.5327    1.8670 C   0  0  0  0  0  0  0  0  0  0  0  0
   -4.7549   -0.6574   -1.3188 S   0  0  0  0  0  0  0  0  0  0  0  0
   -6.0741    0.0390   -1.1264 O   0  0  0  0  0  0  0  0  0  0  0  0
   -4.8937   -1.5692   -2.5056 O   0  0  0  0  0  0  0  0  0  0  0  0
   -4.4258   -1.6439    0.1115 C   0  0  0  0  0  0  0  0  0  0  0  0
   -4.6801   -1.1368    1.3946 C   0  0  0  0  0  0  0  0  0  0  0  0
   -4.3869   -1.9045    2.5260 C   0  0  0  0  0  0  0  0  0  0  0  0
   -3.8442   -3.1842    2.3830 C   0  0  0  0  0  0  0  0  0  0  0  0
   -3.5997   -3.7002    1.1078 C   0  0  0  0  0  0  0  0  0  0  0  0
   -3.8909   -2.9346   -0.0254 C   0  0  0  0  0  0  0  0  0  0  0  0
   -1.9462    3.8438    0.7072 H   0  0  0  0  0  0  0  0  0  0  0  0
   -2.7000    5.4653    0.5225 H   0  0  0  0  0  0  0  0  0  0  0  0
   -2.3895    4.4593   -0.9328 H   0  0  0  0  0  0  0  0  0  0  0  0
   -4.3807    3.9386    1.3651 H   0  0  0  0  0  0  0  0  0  0  0  0
   -5.2013    5.6154   -0.2060 H   0  0  0  0  0  0  0  0  0  0  0  0
   -6.1349    4.0924   -0.4242 H   0  0  0  0  0  0  0  0  0  0  0  0
   -4.8574    4.5526   -1.6194 H   0  0  0  0  0  0  0  0  0  0  0  0
   -5.0807    1.8839    0.3524 H   0  0  0  0  0  0  0  0  0  0  0  0
   -3.3299    1.8151    0.6660 H   0  0  0  0  0  0  0  0  0  0  0  0
   -3.1099    2.5580   -1.9203 H   0  0  0  0  0  0  0  0  0  0  0  0
   -4.8152    2.1099   -2.0373 H   0  0  0  0  0  0  0  0  0  0  0  0
   -1.5439    1.0771   -0.9964 H   0  0  0  0  0  0  0  0  0  0  0  0
   -2.3092   -0.1907   -0.0176 H   0  0  0  0  0  0  0  0  0  0  0  0
   -2.1015   -1.7461   -2.0762 H   0  0  0  0  0  0  0  0  0  0  0  0
   -0.9613   -1.0322   -3.7927 H   0  0  0  0  0  0  0  0  0  0  0  0
    0.4925   -1.8676   -2.0257 H   0  0  0  0  0  0  0  0  0  0  0  0
   -1.1094   -2.0439    0.5927 H   0  0  0  0  0  0  0  0  0  0  0  0
   -0.8648   -3.3268   -0.6272 H   0  0  0  0  0  0  0  0  0  0  0  0
    1.6995   -3.8528   -1.2214 H   0  0  0  0  0  0  0  0  0  0  0  0
    3.8388   -4.4069   -0.1646 H   0  0  0  0  0  0  0  0  0  0  0  0
    6.5352   -4.3133    1.9838 H   0  0  0  0  0  0  0  0  0  0  0  0
    5.7608   -3.5051    0.5989 H   0  0  0  0  0  0  0  0  0  0  0  0
    7.3674   -1.9421    1.5327 H   0  0  0  0  0  0  0  0  0  0  0  0
    6.8309   -2.2841    3.2067 H   0  0  0  0  0  0  0  0  0  0  0  0
    4.6415   -1.1778    2.7722 H   0  0  0  0  0  0  0  0  0  0  0  0
    6.0326   -0.0808    2.5712 H   0  0  0  0  0  0  0  0  0  0  0  0
    4.7123   -1.4792    0.1536 H   0  0  0  0  0  0  0  0  0  0  0  0
    5.9388   -0.1715    0.1450 H   0  0  0  0  0  0  0  0  0  0  0  0
    4.3665    1.1061   -1.2923 H   0  0  0  0  0  0  0  0  0  0  0  0
    1.8172    1.9448    0.1320 H   0  0  0  0  0  0  0  0  0  0  0  0
    2.8696    2.6650   -2.6781 H   0  0  0  0  0  0  0  0  0  0  0  0
    1.0261    4.3665   -2.6381 H   0  0  0  0  0  0  0  0  0  0  0  0
    0.3753    2.6988   -2.5702 H   0  0  0  0  0  0  0  0  0  0  0  0
    0.4342    3.6981   -1.0676 H   0  0  0  0  0  0  0  0  0  0  0  0
    3.2352    4.9340   -1.6927 H   0  0  0  0  0  0  0  0  0  0  0  0
    2.7807    4.3063   -0.0606 H   0  0  0  0  0  0  0  0  0  0  0  0
    4.2620    3.6986   -0.8982 H   0  0  0  0  0  0  0  0  0  0  0  0
    0.4666    0.0319    0.3116 H   0  0  0  0  0  0  0  0  0  0  0  0
    2.5139   -2.5767    3.5021 H   0  0  0  0  0  0  0  0  0  0  0  0
    0.3721   -1.9997    2.4409 H   0  0  0  0  0  0  0  0  0  0  0  0
   -5.1013   -0.1502    1.5226 H   0  0  0  0  0  0  0  0  0  0  0  0
   -4.5799   -1.5067    3.5139 H   0  0  0  0  0  0  0  0  0  0  0  0
   -3.6149   -3.7762    3.2595 H   0  0  0  0  0  0  0  0  0  0  0  0
   -3.1784   -4.6909    0.9969 H   0  0  0  0  0  0  0  0  0  0  0  0
   -3.6877   -3.3463   -1.0052 H   0  0  0  0  0  0  0  0  0  0  0  0
  1  2  1  0
  2  3  1  0
  2  4  1  0
  4  5  1  0
  5  6  1  0
  6  7  1  0
  7  8  1  0
  8  9  1  0
  8 10  1  0
 10 11  1  0
 11 12  1  0
 12 13  2  0
 13 14  1  0
 14 15  2  0
 15 16  1  0
 16 17  1  0
 17 18  1  0
 18 19  1  0
 19 20  1  0
 20 21  1  0
 21 22  2  0
 21 23  1  0
 23 24  1  0
 24 25  1  0
 25 26  1  0
 25 27  1  0
 24 28  1  0
 28 29  2  0
 28 30  1  0
 15 31  1  0
 31 32  2  0
  6 33  1  0
 33 34  2  0
 33 35  2  0
 33 36  1  0
 36 37  2  0
 37 38  1  0
 38 39  2  0
 39 40  1  0
 40 41  2  0
 30 10  1  0
 32 12  1  0
 41 36  1  0
  1 42  1  0
  1 43  1  0
  1 44  1  0
  2 45  1  0
  3 46  1  0
  3 47  1  0
  3 48  1  0
  4 49  1  0
  4 50  1  0
  5 51  1  0
  5 52  1  0
  7 53  1  0
  7 54  1  0
  8 55  1  6
  9 56  1  0
 10 57  1  6
 11 58  1  0
 11 59  1  0
 13 60  1  0
 14 61  1  0
 17 62  1  0
 17 63  1  0
 18 64  1  0
 18 65  1  0
 19 66  1  0
 19 67  1  0
 20 68  1  0
 20 69  1  0
 23 70  1  0
 24 71  1  1
 25 72  1  0
 26 73  1  0
 26 74  1  0
 26 75  1  0
 27 76  1  0
 27 77  1  0
 27 78  1  0
 30 79  1  0
 31 80  1  0
 32 81  1  0
 37 82  1  0
 38 83  1  0
 39 84  1  0
 40 85  1  0
 41 86  1  0
M  END
$$$$
