
     RDKit          3D

 79 82  0  0  0  0  0  0  0  0999 V2000
   -0.2477    1.2748   -1.1372 C   0  0  0  0  0  0  0  0  0  0  0  0
   -1.6656    0.8756   -1.5871 C   0  0  0  0  0  0  0  0  0  0  0  0
   -1.6055   -0.5243   -2.2277 C   0  0  0  0  0  0  0  0  0  0  0  0
   -2.7896    1.0691   -0.4673 C   0  0  0  0  0  0  0  0  0  0  0  0
   -3.9422    1.9628   -1.0195 C   0  0  0  0  0  0  0  0  0  0  0  0
   -4.7510    1.4138   -2.2193 C   0  0  0  0  0  0  0  0  0  0  0  0
   -5.8137    0.4131   -1.8309 C   0  0  0  0  0  0  0  0  0  0  0  0
   -6.8701    0.7879   -0.9821 C   0  0  0  0  0  0  0  0  0  0  0  0
   -7.8593   -0.1364   -0.6337 C   0  0  0  0  0  0  0  0  0  0  0  0
   -7.8151   -1.4405   -1.1433 C   0  0  0  0  0  0  0  0  0  0  0  0
   -8.7936   -2.3709   -0.8007 O   0  0  0  0  0  0  0  0  0  0  0  0
   -6.7818   -1.8119   -2.0085 C   0  0  0  0  0  0  0  0  0  0  0  0
   -5.7918   -0.8895   -2.3594 C   0  0  0  0  0  0  0  0  0  0  0  0
   -3.3846   -0.2552    0.1002 C   0  0  0  0  0  0  0  0  0  0  0  0
   -2.4374   -0.9200    1.0522 C   0  0  0  0  0  0  0  0  0  0  0  0
   -2.4949   -2.1685    1.2126 O   0  0  0  0  0  0  0  0  0  0  0  0
   -1.5348   -0.1026    1.8810 C   0  0  0  0  0  0  0  0  0  0  0  0
   -0.5087   -0.9063    3.1372 S   0  0  0  0  0  0  0  0  0  0  0  0
    0.9819   -0.9960    2.1121 C   0  0  0  0  0  0  0  0  0  0  0  0
    0.8847   -1.7648    0.9430 C   0  0  0  0  0  0  0  0  0  0  0  0
    1.8795   -1.7365   -0.0360 C   0  0  0  0  0  0  0  0  0  0  0  0
    1.6863   -2.5159   -1.3091 C   0  0  0  0  0  0  0  0  0  0  0  0
    3.0106   -0.9286    0.1590 C   0  0  0  0  0  0  0  0  0  0  0  0
    3.9997   -0.7922   -0.8786 N   0  0  0  0  0  0  0  0  0  0  0  0
    5.4130   -0.7717   -0.6164 C   0  0  0  0  0  0  0  0  0  0  0  0
    5.8511   -1.2282    0.4754 O   0  0  0  0  0  0  0  0  0  0  0  0
    6.3684   -0.2590   -1.6276 C   0  0  0  0  0  0  0  0  0  0  0  0
    5.9506    0.6039   -2.6557 C   0  0  0  0  0  0  0  0  0  0  0  0
    6.8718    1.0787   -3.5909 C   0  0  0  0  0  0  0  0  0  0  0  0
    8.2087    0.6937   -3.4916 C   0  0  0  0  0  0  0  0  0  0  0  0
    8.6054   -0.1324   -2.4887 N   0  0  0  0  0  0  0  0  0  0  0  0
    7.7291   -0.6087   -1.5643 C   0  0  0  0  0  0  0  0  0  0  0  0
    3.1608   -0.2335    1.3687 C   0  0  0  0  0  0  0  0  0  0  0  0
    2.2012   -0.3091    2.4115 C   0  0  0  0  0  0  0  0  0  0  0  0
    2.5481    0.2336    3.8345 C   0  0  0  0  0  0  0  0  0  0  0  0
    2.3940   -0.8945    4.8827 C   0  0  0  0  0  0  0  0  0  0  0  0
    4.0182    0.7249    3.9496 C   0  0  0  0  0  0  0  0  0  0  0  0
    1.6555    1.4313    4.2151 C   0  0  0  0  0  0  0  0  0  0  0  0
   -1.5329    1.2250    1.7052 C   0  0  0  0  0  0  0  0  0  0  0  0
   -0.8202    2.0509    2.5625 O   0  0  0  0  0  0  0  0  0  0  0  0
   -2.2477    1.8068    0.6442 O   0  0  0  0  0  0  0  0  0  0  0  0
    0.4598    1.2167   -1.9924 H   0  0  0  0  0  0  0  0  0  0  0  0
   -0.2325    2.3227   -0.7699 H   0  0  0  0  0  0  0  0  0  0  0  0
    0.1230    0.5984   -0.3441 H   0  0  0  0  0  0  0  0  0  0  0  0
   -1.8824    1.5733   -2.4260 H   0  0  0  0  0  0  0  0  0  0  0  0
   -1.3096   -1.2916   -1.4821 H   0  0  0  0  0  0  0  0  0  0  0  0
   -2.5790   -0.7985   -2.6794 H   0  0  0  0  0  0  0  0  0  0  0  0
   -0.8555   -0.5384   -3.0474 H   0  0  0  0  0  0  0  0  0  0  0  0
   -4.6336    2.2239   -0.1893 H   0  0  0  0  0  0  0  0  0  0  0  0
   -3.4968    2.9323   -1.3354 H   0  0  0  0  0  0  0  0  0  0  0  0
   -5.2676    2.2701   -2.7047 H   0  0  0  0  0  0  0  0  0  0  0  0
   -4.0738    0.9975   -2.9916 H   0  0  0  0  0  0  0  0  0  0  0  0
   -6.9312    1.7959   -0.5922 H   0  0  0  0  0  0  0  0  0  0  0  0
   -8.6619    0.1634    0.0280 H   0  0  0  0  0  0  0  0  0  0  0  0
   -9.5559   -2.1321   -0.1772 H   0  0  0  0  0  0  0  0  0  0  0  0
   -6.7474   -2.8159   -2.4120 H   0  0  0  0  0  0  0  0  0  0  0  0
   -5.0050   -1.1957   -3.0367 H   0  0  0  0  0  0  0  0  0  0  0  0
   -4.3081   -0.0301    0.6769 H   0  0  0  0  0  0  0  0  0  0  0  0
   -3.6724   -0.9665   -0.6955 H   0  0  0  0  0  0  0  0  0  0  0  0
   -0.0034   -2.3543    0.7676 H   0  0  0  0  0  0  0  0  0  0  0  0
    1.4074   -1.8223   -2.1299 H   0  0  0  0  0  0  0  0  0  0  0  0
    0.8838   -3.2767   -1.2027 H   0  0  0  0  0  0  0  0  0  0  0  0
    2.6222   -3.0496   -1.5782 H   0  0  0  0  0  0  0  0  0  0  0  0
    3.6813   -0.8007   -1.8730 H   0  0  0  0  0  0  0  0  0  0  0  0
    4.9218    0.9304   -2.7292 H   0  0  0  0  0  0  0  0  0  0  0  0
    6.5530    1.7445   -4.3825 H   0  0  0  0  0  0  0  0  0  0  0  0
    8.9328    1.0553   -4.2094 H   0  0  0  0  0  0  0  0  0  0  0  0
    8.0950   -1.2669   -0.7869 H   0  0  0  0  0  0  0  0  0  0  0  0
    4.0457    0.3730    1.4684 H   0  0  0  0  0  0  0  0  0  0  0  0
    2.9950   -1.7810    4.5853 H   0  0  0  0  0  0  0  0  0  0  0  0
    1.3455   -1.2161    5.0142 H   0  0  0  0  0  0  0  0  0  0  0  0
    2.7436   -0.5578    5.8831 H   0  0  0  0  0  0  0  0  0  0  0  0
    4.7310   -0.0807    3.6677 H   0  0  0  0  0  0  0  0  0  0  0  0
    4.1937    1.6188    3.3127 H   0  0  0  0  0  0  0  0  0  0  0  0
    4.2599    1.0269    4.9924 H   0  0  0  0  0  0  0  0  0  0  0  0
    2.0311    1.9286    5.1359 H   0  0  0  0  0  0  0  0  0  0  0  0
    0.6190    1.1257    4.4425 H   0  0  0  0  0  0  0  0  0  0  0  0
    1.6541    2.1832    3.3975 H   0  0  0  0  0  0  0  0  0  0  0  0
   -0.8129    3.0539    2.4241 H   0  0  0  0  0  0  0  0  0  0  0  0
  1  2  1  0
  2  3  1  0
  2  4  1  0
  4  5  1  0
  5  6  1  0
  6  7  1  0
  7  8  2  0
  8  9  1  0
  9 10  2  0
 10 11  1  0
 10 12  1  0
 12 13  2  0
  4 14  1  0
 14 15  1  0
 15 16  2  0
 15 17  1  0
 17 18  1  0
 18 19  1  0
 19 20  2  0
 20 21  1  0
 21 22  1  0
 21 23  2  0
 23 24  1  0
 24 25  1  0
 25 26  2  0
 25 27  1  0
 27 28  2  0
 28 29  1  0
 29 30  2  0
 30 31  1  0
 31 32  2  0
 23 33  1  0
 33 34  2  0
 34 35  1  0
 35 36  1  0
 35 37  1  0
 35 38  1  0
 17 39  2  0
 39 40  1  0
 39 41  1  0
 13  7  1  0
 32 27  1  0
 34 19  1  0
 41  4  1  0
  1 42  1  0
  1 43  1  0
  1 44  1  0
  2 45  1  0
  3 46  1  0
  3 47  1  0
  3 48  1  0
  5 49  1  0
  5 50  1  0
  6 51  1  0
  6 52  1  0
  8 53  1  0
  9 54  1  0
 11 55  1  0
 12 56  1  0
 13 57  1  0
 14 58  1  0
 14 59  1  0
 20 60  1  0
 22 61  1  0
 22 62  1  0
 22 63  1  0
 24 64  1  0
 28 65  1  0
 29 66  1  0
 30 67  1  0
 32 68  1  0
 33 69  1  0
 36 70  1  0
 36 71  1  0
 36 72  1  0
 37 73  1  0
 37 74  1  0
 37 75  1  0
 38 76  1  0
 38 77  1  0
 38 78  1  0
 40 79  1  0
M  END
$$$$
