
     RDKit          3D

 63 66  0  0  0  0  0  0  0  0999 V2000
   -1.0874   -4.0680    1.2958 C   0  0  0  0  0  0  0  0  0  0  0  0
   -0.1076   -2.8980    1.3895 C   0  0  0  0  0  0  0  0  0  0  0  0
   -0.3963   -1.8039    0.3330 C   0  0  0  0  0  0  0  0  0  0  0  0
    0.7156   -0.7703    0.1742 C   0  0  0  0  0  0  0  0  0  0  0  0
    0.7368    0.0133   -0.9928 C   0  0  0  0  0  0  0  0  0  0  0  0
    1.7158    0.9895   -1.1774 C   0  0  0  0  0  0  0  0  0  0  0  0
    2.6884    1.2035   -0.2008 C   0  0  0  0  0  0  0  0  0  0  0  0
    2.6918    0.4370    0.9780 C   0  0  0  0  0  0  0  0  0  0  0  0
    3.6789    0.6323    2.0071 N   0  0  0  0  0  0  0  0  0  0  0  0
    5.1222    1.5737    1.7988 S   0  0  0  0  0  0  0  0  0  0  0  0
    6.0077    1.3952    2.9995 O   0  0  0  0  0  0  0  0  0  0  0  0
    4.7489    3.0248    1.6775 O   0  0  0  0  0  0  0  0  0  0  0  0
    5.9937    1.0316    0.3680 C   0  0  0  0  0  0  0  0  0  0  0  0
    6.0395   -0.3333    0.0530 C   0  0  0  0  0  0  0  0  0  0  0  0
    6.7185   -0.7695   -1.0887 C   0  0  0  0  0  0  0  0  0  0  0  0
    7.3598    0.1569   -1.9208 C   0  0  0  0  0  0  0  0  0  0  0  0
    8.0582   -0.2916   -3.0968 C   0  0  0  0  0  0  0  0  0  0  0  0
    8.6196   -0.6523   -4.0423 N   0  0  0  0  0  0  0  0  0  0  0  0
    7.3206    1.5210   -1.6047 C   0  0  0  0  0  0  0  0  0  0  0  0
    6.6406    1.9570   -0.4631 C   0  0  0  0  0  0  0  0  0  0  0  0
    1.6986   -0.5391    1.1606 C   0  0  0  0  0  0  0  0  0  0  0  0
   -1.7418   -1.1149    0.5906 C   0  0  0  0  0  0  0  0  0  0  0  0
   -2.8798   -1.3357   -0.2281 C   0  0  0  0  0  0  0  0  0  0  0  0
   -2.8868   -2.2715   -1.2698 O   0  0  0  0  0  0  0  0  0  0  0  0
   -4.0580   -0.5973    0.0012 C   0  0  0  0  0  0  0  0  0  0  0  0
   -5.2100   -0.6917   -0.9739 C   0  0  0  0  0  0  0  0  0  0  0  0
   -5.1307    0.3752   -2.0951 C   0  0  0  0  0  0  0  0  0  0  0  0
   -4.3489    1.6669   -1.7500 C   0  0  0  0  0  0  0  0  0  0  0  0
   -5.0163    2.6315   -0.7422 C   0  0  0  0  0  0  0  0  0  0  0  0
   -5.9558    2.0068    0.3031 C   0  0  0  0  0  0  0  0  0  0  0  0
   -5.2879    1.1750    1.4233 C   0  0  0  0  0  0  0  0  0  0  0  0
   -4.0783    0.3376    1.0607 C   0  0  0  0  0  0  0  0  0  0  0  0
   -3.0095    0.4706    1.8353 O   0  0  0  0  0  0  0  0  0  0  0  0
   -1.8805   -0.1986    1.6567 C   0  0  0  0  0  0  0  0  0  0  0  0
   -0.9320    0.0059    2.4594 O   0  0  0  0  0  0  0  0  0  0  0  0
   -1.0386   -4.5345    0.2892 H   0  0  0  0  0  0  0  0  0  0  0  0
   -2.1251   -3.7268    1.4947 H   0  0  0  0  0  0  0  0  0  0  0  0
   -0.8205   -4.8356    2.0524 H   0  0  0  0  0  0  0  0  0  0  0  0
   -0.1592   -2.4788    2.4167 H   0  0  0  0  0  0  0  0  0  0  0  0
    0.9171   -3.3005    1.2315 H   0  0  0  0  0  0  0  0  0  0  0  0
   -0.3973   -2.3254   -0.6409 H   0  0  0  0  0  0  0  0  0  0  0  0
   -0.0137   -0.1303   -1.7608 H   0  0  0  0  0  0  0  0  0  0  0  0
    1.7177    1.5866   -2.0802 H   0  0  0  0  0  0  0  0  0  0  0  0
    3.4242    1.9753   -0.3720 H   0  0  0  0  0  0  0  0  0  0  0  0
    3.5788    0.1177    2.9107 H   0  0  0  0  0  0  0  0  0  0  0  0
    5.5471   -1.0584    0.6886 H   0  0  0  0  0  0  0  0  0  0  0  0
    6.7432   -1.8271   -1.3225 H   0  0  0  0  0  0  0  0  0  0  0  0
    7.8145    2.2464   -2.2401 H   0  0  0  0  0  0  0  0  0  0  0  0
    6.6181    3.0138   -0.2304 H   0  0  0  0  0  0  0  0  0  0  0  0
    1.7017   -1.1093    2.0788 H   0  0  0  0  0  0  0  0  0  0  0  0
   -2.2002   -2.9987   -1.4015 H   0  0  0  0  0  0  0  0  0  0  0  0
   -6.1731   -0.6349   -0.4304 H   0  0  0  0  0  0  0  0  0  0  0  0
   -5.2452   -1.6980   -1.4432 H   0  0  0  0  0  0  0  0  0  0  0  0
   -6.1565    0.6377   -2.4325 H   0  0  0  0  0  0  0  0  0  0  0  0
   -4.6212   -0.0910   -2.9668 H   0  0  0  0  0  0  0  0  0  0  0  0
   -3.3213    1.4185   -1.4093 H   0  0  0  0  0  0  0  0  0  0  0  0
   -4.1980    2.2285   -2.6980 H   0  0  0  0  0  0  0  0  0  0  0  0
   -4.2271    3.2155   -0.2204 H   0  0  0  0  0  0  0  0  0  0  0  0
   -5.6182    3.3636   -1.3245 H   0  0  0  0  0  0  0  0  0  0  0  0
   -6.4894    2.8454    0.8026 H   0  0  0  0  0  0  0  0  0  0  0  0
   -6.7677    1.4429   -0.1955 H   0  0  0  0  0  0  0  0  0  0  0  0
   -6.0528    0.5066    1.8730 H   0  0  0  0  0  0  0  0  0  0  0  0
   -4.9851    1.8813    2.2278 H   0  0  0  0  0  0  0  0  0  0  0  0
  1  2  1  0
  2  3  1  0
  3  4  1  0
  4  5  2  0
  5  6  1  0
  6  7  2  0
  7  8  1  0
  8  9  1  0
  9 10  1  0
 10 11  2  0
 10 12  2  0
 10 13  1  0
 13 14  2  0
 14 15  1  0
 15 16  2  0
 16 17  1  0
 17 18  3  0
 16 19  1  0
 19 20  2  0
  8 21  2  0
  3 22  1  0
 22 23  2  0
 23 24  1  0
 23 25  1  0
 25 26  1  0
 26 27  1  0
 27 28  1  0
 28 29  1  0
 29 30  1  0
 30 31  1  0
 31 32  1  0
 32 33  1  0
 33 34  1  0
 34 35  2  0
 20 13  1  0
 21  4  1  0
 32 25  2  0
 34 22  1  0
  1 36  1  0
  1 37  1  0
  1 38  1  0
  2 39  1  0
  2 40  1  0
  3 41  1  0
  5 42  1  0
  6 43  1  0
  7 44  1  0
  9 45  1  0
 14 46  1  0
 15 47  1  0
 19 48  1  0
 20 49  1  0
 21 50  1  0
 24 51  1  0
 26 52  1  0
 26 53  1  0
 27 54  1  0
 27 55  1  0
 28 56  1  0
 28 57  1  0
 29 58  1  0
 29 59  1  0
 30 60  1  0
 30 61  1  0
 31 62  1  0
 31 63  1  0
M  END
$$$$
