
     RDKit          3D

 86 88  0  0  0  0  0  0  0  0999 V2000
   -4.9009   -2.9267    1.4277 C   0  0  0  0  0  0  0  0  0  0  0  0
   -3.8288   -3.0723    0.3384 C   0  0  0  0  0  0  0  0  0  0  0  0
   -2.5719   -3.7576    0.8919 C   0  0  0  0  0  0  0  0  0  0  0  0
   -3.5115   -1.7294   -0.3605 C   0  0  0  0  0  0  0  0  0  0  0  0
   -2.7747   -0.7049    0.5346 C   0  0  0  0  0  0  0  0  0  0  0  0
   -2.6832    0.6509   -0.0499 N   0  0  0  0  0  0  0  0  0  0  0  0
   -2.0671    0.6918   -1.3940 C   0  0  0  0  0  0  0  0  0  0  0  0
   -1.1159    1.9006   -1.5665 C   0  0  1  0  0  0  0  0  0  0  0  0
   -1.8571    3.0627   -1.8342 O   0  0  0  0  0  0  0  0  0  0  0  0
   -0.2109    2.1354   -0.3289 C   0  0  2  0  0  0  0  0  0  0  0  0
    0.8312    3.2722   -0.5672 C   0  0  0  0  0  0  0  0  0  0  0  0
    2.2204    2.7767   -0.9021 C   0  0  0  0  0  0  0  0  0  0  0  0
    3.2365    2.8062    0.0683 C   0  0  0  0  0  0  0  0  0  0  0  0
    4.4655    2.1839   -0.1747 C   0  0  0  0  0  0  0  0  0  0  0  0
    4.6759    1.4865   -1.3792 C   0  0  0  0  0  0  0  0  0  0  0  0
    5.8000    0.6752   -1.6020 O   0  0  0  0  0  0  0  0  0  0  0  0
    6.7177    0.2345   -0.5996 C   0  0  0  0  0  0  0  0  0  0  0  0
    6.0773   -0.7484    0.4002 C   0  0  0  0  0  0  0  0  0  0  0  0
    5.6056   -2.0752   -0.2326 C   0  0  0  0  0  0  0  0  0  0  0  0
    4.1682   -2.0467   -0.7831 C   0  0  0  0  0  0  0  0  0  0  0  0
    3.1292   -2.0323    0.3063 C   0  0  0  0  0  0  0  0  0  0  0  0
    2.7204   -3.1235    0.7874 O   0  0  0  0  0  0  0  0  0  0  0  0
    2.6163   -0.7852    0.7964 N   0  0  0  0  0  0  0  0  0  0  0  0
    1.5505   -0.6645    1.7992 C   0  0  1  0  0  0  0  0  0  0  0  0
    2.1559   -0.4910    3.2236 C   0  0  0  0  0  0  0  0  0  0  0  0
    2.9530   -1.7292    3.6559 C   0  0  0  0  0  0  0  0  0  0  0  0
    3.0314    0.7683    3.3482 C   0  0  0  0  0  0  0  0  0  0  0  0
    0.6184    0.4807    1.4370 C   0  0  0  0  0  0  0  0  0  0  0  0
   -0.0655    1.0380    2.3389 O   0  0  0  0  0  0  0  0  0  0  0  0
    0.4433    0.8780    0.0666 N   0  0  0  0  0  0  0  0  0  0  0  0
    3.7064    1.5584   -2.3856 C   0  0  0  0  0  0  0  0  0  0  0  0
    2.4876    2.1996   -2.1526 C   0  0  0  0  0  0  0  0  0  0  0  0
   -4.1679    1.5785    0.1009 S   0  0  0  0  0  0  0  0  0  0  0  0
   -3.8411    3.0437    0.0419 O   0  0  0  0  0  0  0  0  0  0  0  0
   -4.7843    1.3161    1.4475 O   0  0  0  0  0  0  0  0  0  0  0  0
   -5.3720    1.2275   -1.1460 C   0  0  0  0  0  0  0  0  0  0  0  0
   -6.4615    0.3873   -0.8640 C   0  0  0  0  0  0  0  0  0  0  0  0
   -7.4261    0.1307   -1.8430 C   0  0  0  0  0  0  0  0  0  0  0  0
   -7.3206    0.7261   -3.1026 C   0  0  0  0  0  0  0  0  0  0  0  0
   -6.2542    1.5847   -3.3817 C   0  0  0  0  0  0  0  0  0  0  0  0
   -5.2876    1.8420   -2.4047 C   0  0  0  0  0  0  0  0  0  0  0  0
   -4.5162   -2.3667    2.3048 H   0  0  0  0  0  0  0  0  0  0  0  0
   -5.2225   -3.9319    1.7746 H   0  0  0  0  0  0  0  0  0  0  0  0
   -5.7925   -2.4014    1.0245 H   0  0  0  0  0  0  0  0  0  0  0  0
   -4.2514   -3.7452   -0.4410 H   0  0  0  0  0  0  0  0  0  0  0  0
   -2.1593   -3.1972    1.7576 H   0  0  0  0  0  0  0  0  0  0  0  0
   -2.8199   -4.7867    1.2289 H   0  0  0  0  0  0  0  0  0  0  0  0
   -1.7936   -3.8293    0.1025 H   0  0  0  0  0  0  0  0  0  0  0  0
   -2.8911   -1.9519   -1.2542 H   0  0  0  0  0  0  0  0  0  0  0  0
   -4.4551   -1.3005   -0.7372 H   0  0  0  0  0  0  0  0  0  0  0  0
   -1.7429   -1.0733    0.7161 H   0  0  0  0  0  0  0  0  0  0  0  0
   -3.2492   -0.6434    1.5334 H   0  0  0  0  0  0  0  0  0  0  0  0
   -1.4447   -0.2150   -1.5608 H   0  0  0  0  0  0  0  0  0  0  0  0
   -2.8361    0.6800   -2.1923 H   0  0  0  0  0  0  0  0  0  0  0  0
   -0.4574    1.6794   -2.4376 H   0  0  0  0  0  0  0  0  0  0  0  0
   -2.0899    3.0423   -2.7991 H   0  0  0  0  0  0  0  0  0  0  0  0
   -0.8806    2.4771    0.4915 H   0  0  0  0  0  0  0  0  0  0  0  0
    0.4938    3.9594   -1.3728 H   0  0  0  0  0  0  0  0  0  0  0  0
    0.8797    3.8975    0.3515 H   0  0  0  0  0  0  0  0  0  0  0  0
    3.0609    3.2639    1.0337 H   0  0  0  0  0  0  0  0  0  0  0  0
    5.2106    2.1874    0.6080 H   0  0  0  0  0  0  0  0  0  0  0  0
    7.1370    1.1089   -0.0583 H   0  0  0  0  0  0  0  0  0  0  0  0
    7.5707   -0.2678   -1.1028 H   0  0  0  0  0  0  0  0  0  0  0  0
    5.2590   -0.2599    0.9584 H   0  0  0  0  0  0  0  0  0  0  0  0
    6.8554   -0.9934    1.1554 H   0  0  0  0  0  0  0  0  0  0  0  0
    5.6717   -2.8800    0.5328 H   0  0  0  0  0  0  0  0  0  0  0  0
    6.3000   -2.3629   -1.0517 H   0  0  0  0  0  0  0  0  0  0  0  0
    4.0134   -2.9584   -1.4000 H   0  0  0  0  0  0  0  0  0  0  0  0
    4.0205   -1.1847   -1.4610 H   0  0  0  0  0  0  0  0  0  0  0  0
    3.0334    0.0889    0.4223 H   0  0  0  0  0  0  0  0  0  0  0  0
    0.9271   -1.5855    1.7887 H   0  0  0  0  0  0  0  0  0  0  0  0
    1.3157   -0.3899    3.9463 H   0  0  0  0  0  0  0  0  0  0  0  0
    3.2569   -1.6326    4.7201 H   0  0  0  0  0  0  0  0  0  0  0  0
    3.8704   -1.8471    3.0408 H   0  0  0  0  0  0  0  0  0  0  0  0
    2.3288   -2.6428    3.5599 H   0  0  0  0  0  0  0  0  0  0  0  0
    2.4548    1.6788    3.0844 H   0  0  0  0  0  0  0  0  0  0  0  0
    3.9191    0.7046    2.6868 H   0  0  0  0  0  0  0  0  0  0  0  0
    3.3831    0.8836    4.3956 H   0  0  0  0  0  0  0  0  0  0  0  0
    0.8667    0.2902   -0.6867 H   0  0  0  0  0  0  0  0  0  0  0  0
    3.8722    1.0569   -3.3306 H   0  0  0  0  0  0  0  0  0  0  0  0
    1.7366    2.1989   -2.9304 H   0  0  0  0  0  0  0  0  0  0  0  0
   -6.5601   -0.0774    0.1084 H   0  0  0  0  0  0  0  0  0  0  0  0
   -8.2569   -0.5275   -1.6239 H   0  0  0  0  0  0  0  0  0  0  0  0
   -8.0687    0.5281   -3.8593 H   0  0  0  0  0  0  0  0  0  0  0  0
   -6.1792    2.0554   -4.3534 H   0  0  0  0  0  0  0  0  0  0  0  0
   -4.4781    2.5220   -2.6298 H   0  0  0  0  0  0  0  0  0  0  0  0
  1  2  1  0
  2  3  1  0
  2  4  1  0
  4  5  1  0
  5  6  1  0
  6  7  1  0
  7  8  1  0
  8  9  1  0
  8 10  1  0
 10 11  1  0
 11 12  1  0
 12 13  2  0
 13 14  1  0
 14 15  2  0
 15 16  1  0
 16 17  1  0
 17 18  1  0
 18 19  1  0
 19 20  1  0
 20 21  1  0
 21 22  2  0
 21 23  1  0
 23 24  1  0
 24 25  1  0
 25 26  1  0
 25 27  1  0
 24 28  1  0
 28 29  2  0
 28 30  1  0
 15 31  1  0
 31 32  2  0
  6 33  1  0
 33 34  2  0
 33 35  2  0
 33 36  1  0
 36 37  2  0
 37 38  1  0
 38 39  2  0
 39 40  1  0
 40 41  2  0
 30 10  1  0
 32 12  1  0
 41 36  1  0
  1 42  1  0
  1 43  1  0
  1 44  1  0
  2 45  1  0
  3 46  1  0
  3 47  1  0
  3 48  1  0
  4 49  1  0
  4 50  1  0
  5 51  1  0
  5 52  1  0
  7 53  1  0
  7 54  1  0
  8 55  1  6
  9 56  1  0
 10 57  1  1
 11 58  1  0
 11 59  1  0
 13 60  1  0
 14 61  1  0
 17 62  1  0
 17 63  1  0
 18 64  1  0
 18 65  1  0
 19 66  1  0
 19 67  1  0
 20 68  1  0
 20 69  1  0
 23 70  1  0
 24 71  1  1
 25 72  1  0
 26 73  1  0
 26 74  1  0
 26 75  1  0
 27 76  1  0
 27 77  1  0
 27 78  1  0
 30 79  1  0
 31 80  1  0
 32 81  1  0
 37 82  1  0
 38 83  1  0
 39 84  1  0
 40 85  1  0
 41 86  1  0
M  END
$$$$
