
     RDKit          3D

 86 90  0  0  0  0  0  0  0  0999 V2000
    1.0065    3.1806    0.7333 O   0  0  0  0  0  0  0  0  0  0  0  0
   -0.0471    2.4204    1.2801 C   0  0  2  0  0  0  0  0  0  0  0  0
    0.4679    1.1605    2.0135 C   0  0  1  0  0  0  0  0  0  0  0  0
   -0.6035    0.3310    2.3871 O   0  0  0  0  0  0  0  0  0  0  0  0
    1.5739    0.3259    1.2886 C   0  0  1  0  0  0  0  0  0  0  0  0
    2.0205   -0.8349    2.2408 C   0  0  0  0  0  0  0  0  0  0  0  0
    2.5921   -0.3387    3.5468 C   0  0  0  0  0  0  0  0  0  0  0  0
    1.8542   -0.4491    4.7381 C   0  0  0  0  0  0  0  0  0  0  0  0
    2.3833    0.0295    5.9406 C   0  0  0  0  0  0  0  0  0  0  0  0
    3.6497    0.6202    5.9632 C   0  0  0  0  0  0  0  0  0  0  0  0
    4.3895    0.7337    4.7830 C   0  0  0  0  0  0  0  0  0  0  0  0
    3.8642    0.2571    3.5781 C   0  0  0  0  0  0  0  0  0  0  0  0
    1.1861   -0.1773   -0.0656 N   0  0  0  0  0  0  0  0  0  0  0  0
    1.8335   -1.3763   -0.6499 C   0  0  0  0  0  0  0  0  0  0  0  0
    3.3732   -1.2102   -0.8654 C   0  0  0  0  0  0  0  0  0  0  0  0
    4.0922   -2.5916   -0.9397 C   0  0  0  0  0  0  0  0  0  0  0  0
    4.5106   -3.0136   -2.3626 C   0  0  0  0  0  0  0  0  0  0  0  0
    3.4997   -2.5446   -3.4113 C   0  0  0  0  0  0  0  0  0  0  0  0
    3.3601   -1.0095   -3.4305 C   0  0  0  0  0  0  0  0  0  0  0  0
    3.7336   -0.3438   -2.0901 C   0  0  0  0  0  0  0  0  0  0  0  0
    0.3726    0.6099   -0.9644 C   0  0  0  0  0  0  0  0  0  0  0  0
    0.8294    0.8815   -2.1521 N   0  0  0  0  0  0  0  0  0  0  0  0
    0.1497    1.6003   -3.1457 C   0  0  0  0  0  0  0  0  0  0  0  0
   -0.4004    2.1906   -3.9747 N   0  0  0  0  0  0  0  0  0  0  0  0
   -0.9672    0.9784   -0.5865 N   0  0  0  0  0  0  0  0  0  0  0  0
   -2.1118    0.2889   -1.2147 C   0  0  0  0  0  0  0  0  0  0  0  0
   -2.0480   -1.2483   -1.0612 C   0  0  0  0  0  0  0  0  0  0  0  0
   -3.2171   -1.9214   -1.8324 C   0  0  0  0  0  0  0  0  0  0  0  0
   -4.4295   -2.1709   -0.9284 C   0  0  0  0  0  0  0  0  0  0  0  0
   -4.0841   -3.1176    0.2388 C   0  0  0  0  0  0  0  0  0  0  0  0
   -2.6017   -3.0591    0.6556 C   0  0  0  0  0  0  0  0  0  0  0  0
   -2.0103   -1.6642    0.4330 C   0  0  0  0  0  0  0  0  0  0  0  0
   -1.2157    2.1373    0.2935 C   0  0  2  0  0  0  0  0  0  0  0  0
   -1.5873    3.4062   -0.5160 C   0  0  0  0  0  0  0  0  0  0  0  0
   -3.0406    3.4205   -0.9266 C   0  0  0  0  0  0  0  0  0  0  0  0
   -4.0430    3.6041    0.0424 C   0  0  0  0  0  0  0  0  0  0  0  0
   -5.3918    3.5927   -0.3252 C   0  0  0  0  0  0  0  0  0  0  0  0
   -5.7514    3.4044   -1.6619 C   0  0  0  0  0  0  0  0  0  0  0  0
   -4.7625    3.2326   -2.6336 C   0  0  0  0  0  0  0  0  0  0  0  0
   -3.4125    3.2444   -2.2700 C   0  0  0  0  0  0  0  0  0  0  0  0
    1.2460    2.8142   -0.1522 H   0  0  0  0  0  0  0  0  0  0  0  0
   -0.4931    3.0643    2.0724 H   0  0  0  0  0  0  0  0  0  0  0  0
    0.9424    1.5578    2.9413 H   0  0  0  0  0  0  0  0  0  0  0  0
   -1.0817    0.7864    3.1288 H   0  0  0  0  0  0  0  0  0  0  0  0
    2.4509    0.9946    1.1476 H   0  0  0  0  0  0  0  0  0  0  0  0
    2.8072   -1.4674    1.7913 H   0  0  0  0  0  0  0  0  0  0  0  0
    1.1617   -1.5165    2.4262 H   0  0  0  0  0  0  0  0  0  0  0  0
    0.8690   -0.8985    4.7348 H   0  0  0  0  0  0  0  0  0  0  0  0
    1.8105   -0.0559    6.8550 H   0  0  0  0  0  0  0  0  0  0  0  0
    4.0573    0.9905    6.8949 H   0  0  0  0  0  0  0  0  0  0  0  0
    5.3698    1.1920    4.8015 H   0  0  0  0  0  0  0  0  0  0  0  0
    4.4464    0.3523    2.6697 H   0  0  0  0  0  0  0  0  0  0  0  0
    1.6185   -2.2407    0.0117 H   0  0  0  0  0  0  0  0  0  0  0  0
    1.3479   -1.6540   -1.6088 H   0  0  0  0  0  0  0  0  0  0  0  0
    3.7976   -0.6755    0.0085 H   0  0  0  0  0  0  0  0  0  0  0  0
    5.0110   -2.5543   -0.3140 H   0  0  0  0  0  0  0  0  0  0  0  0
    3.4619   -3.3952   -0.5017 H   0  0  0  0  0  0  0  0  0  0  0  0
    5.5075   -2.5821   -2.6022 H   0  0  0  0  0  0  0  0  0  0  0  0
    4.6065   -4.1201   -2.4080 H   0  0  0  0  0  0  0  0  0  0  0  0
    2.5138   -3.0110   -3.1958 H   0  0  0  0  0  0  0  0  0  0  0  0
    3.8185   -2.8992   -4.4153 H   0  0  0  0  0  0  0  0  0  0  0  0
    2.3165   -0.7477   -3.7048 H   0  0  0  0  0  0  0  0  0  0  0  0
    4.0167   -0.5914   -4.2245 H   0  0  0  0  0  0  0  0  0  0  0  0
    3.2849    0.6653   -2.0112 H   0  0  0  0  0  0  0  0  0  0  0  0
    4.8340   -0.1775   -2.0801 H   0  0  0  0  0  0  0  0  0  0  0  0
   -2.1385    0.5441   -2.2938 H   0  0  0  0  0  0  0  0  0  0  0  0
   -3.0697    0.6480   -0.7801 H   0  0  0  0  0  0  0  0  0  0  0  0
   -1.1102   -1.6012   -1.5424 H   0  0  0  0  0  0  0  0  0  0  0  0
   -2.8737   -2.8993   -2.2374 H   0  0  0  0  0  0  0  0  0  0  0  0
   -3.5283   -1.3098   -2.7072 H   0  0  0  0  0  0  0  0  0  0  0  0
   -5.2569   -2.6082   -1.5279 H   0  0  0  0  0  0  0  0  0  0  0  0
   -4.7869   -1.1980   -0.5252 H   0  0  0  0  0  0  0  0  0  0  0  0
   -4.3302   -4.1632   -0.0484 H   0  0  0  0  0  0  0  0  0  0  0  0
   -4.7226   -2.8553    1.1104 H   0  0  0  0  0  0  0  0  0  0  0  0
   -2.5064   -3.3378    1.7273 H   0  0  0  0  0  0  0  0  0  0  0  0
   -2.0178   -3.7979    0.0632 H   0  0  0  0  0  0  0  0  0  0  0  0
   -2.5824   -0.9403    1.0548 H   0  0  0  0  0  0  0  0  0  0  0  0
   -0.9592   -1.6662    0.7879 H   0  0  0  0  0  0  0  0  0  0  0  0
   -2.0838    1.8827    0.9432 H   0  0  0  0  0  0  0  0  0  0  0  0
   -1.4121    4.3132    0.1035 H   0  0  0  0  0  0  0  0  0  0  0  0
   -0.9229    3.5018   -1.4001 H   0  0  0  0  0  0  0  0  0  0  0  0
   -3.7785    3.7499    1.0825 H   0  0  0  0  0  0  0  0  0  0  0  0
   -6.1582    3.7291    0.4267 H   0  0  0  0  0  0  0  0  0  0  0  0
   -6.7960    3.3945   -1.9452 H   0  0  0  0  0  0  0  0  0  0  0  0
   -5.0418    3.0905   -3.6695 H   0  0  0  0  0  0  0  0  0  0  0  0
   -2.6626    3.1133   -3.0356 H   0  0  0  0  0  0  0  0  0  0  0  0
  1  2  1  0
  2  3  1  0
  3  4  1  0
  3  5  1  0
  5  6  1  0
  6  7  1  0
  7  8  2  0
  8  9  1  0
  9 10  2  0
 10 11  1  0
 11 12  2  0
  5 13  1  0
 13 14  1  0
 14 15  1  0
 15 16  1  0
 16 17  1  0
 17 18  1  0
 18 19  1  0
 19 20  1  0
 13 21  1  0
 21 22  2  3
 22 23  1  0
 23 24  3  0
 21 25  1  0
 25 26  1  0
 26 27  1  0
 27 28  1  0
 28 29  1  0
 29 30  1  0
 30 31  1  0
 31 32  1  0
 25 33  1  0
 33 34  1  0
 34 35  1  0
 35 36  2  0
 36 37  1  0
 37 38  2  0
 38 39  1  0
 39 40  2  0
 12  7  1  0
 20 15  1  0
 32 27  1  0
 33  2  1  0
 40 35  1  0
  1 41  1  0
  2 42  1  1
  3 43  1  1
  4 44  1  0
  5 45  1  6
  6 46  1  0
  6 47  1  0
  8 48  1  0
  9 49  1  0
 10 50  1  0
 11 51  1  0
 12 52  1  0
 14 53  1  0
 14 54  1  0
 15 55  1  0
 16 56  1  0
 16 57  1  0
 17 58  1  0
 17 59  1  0
 18 60  1  0
 18 61  1  0
 19 62  1  0
 19 63  1  0
 20 64  1  0
 20 65  1  0
 26 66  1  0
 26 67  1  0
 27 68  1  0
 28 69  1  0
 28 70  1  0
 29 71  1  0
 29 72  1  0
 30 73  1  0
 30 74  1  0
 31 75  1  0
 31 76  1  0
 32 77  1  0
 32 78  1  0
 33 79  1  1
 34 80  1  0
 34 81  1  0
 36 82  1  0
 37 83  1  0
 38 84  1  0
 39 85  1  0
 40 86  1  0
M  END
$$$$
