
     RDKit          3D

 86 90  0  0  0  0  0  0  0  0999 V2000
   -1.5274    3.1150   -1.2560 O   0  0  0  0  0  0  0  0  0  0  0  0
   -0.9413    2.2987   -0.2705 C   0  0  2  0  0  0  0  0  0  0  0  0
    0.5982    2.3715   -0.4061 C   0  0  1  0  0  0  0  0  0  0  0  0
    0.9843    3.7231   -0.3450 O   0  0  0  0  0  0  0  0  0  0  0  0
    1.4115    1.5622    0.6492 C   0  0  1  0  0  0  0  0  0  0  0  0
    1.2186    2.1032    2.0913 C   0  0  0  0  0  0  0  0  0  0  0  0
    2.1249    1.4337    3.0971 C   0  0  0  0  0  0  0  0  0  0  0  0
    1.5785    0.7746    4.2126 C   0  0  0  0  0  0  0  0  0  0  0  0
    2.4151    0.1760    5.1594 C   0  0  0  0  0  0  0  0  0  0  0  0
    3.8023    0.2380    5.0074 C   0  0  0  0  0  0  0  0  0  0  0  0
    4.3557    0.9095    3.9146 C   0  0  0  0  0  0  0  0  0  0  0  0
    3.5234    1.5146    2.9683 C   0  0  0  0  0  0  0  0  0  0  0  0
    1.1680    0.1039    0.5581 N   0  0  0  0  0  0  0  0  0  0  0  0
    2.2584   -0.7940    0.1127 C   0  0  0  0  0  0  0  0  0  0  0  0
    2.8165   -0.4440   -1.2978 C   0  0  0  0  0  0  0  0  0  0  0  0
    4.3243   -0.1198   -1.2355 C   0  0  0  0  0  0  0  0  0  0  0  0
    4.8698    0.2378   -2.6243 C   0  0  0  0  0  0  0  0  0  0  0  0
    4.6037   -0.8897   -3.6289 C   0  0  0  0  0  0  0  0  0  0  0  0
    3.1101   -1.2304   -3.6927 C   0  0  0  0  0  0  0  0  0  0  0  0
    2.5699   -1.5905   -2.3031 C   0  0  0  0  0  0  0  0  0  0  0  0
   -0.0294   -0.4553    1.1587 C   0  0  0  0  0  0  0  0  0  0  0  0
    0.0327   -1.3923    2.0678 N   0  0  0  0  0  0  0  0  0  0  0  0
    1.1948   -1.9838    2.5885 C   0  0  0  0  0  0  0  0  0  0  0  0
    2.1501   -2.4743    3.0203 N   0  0  0  0  0  0  0  0  0  0  0  0
   -1.3224    0.1113    0.8495 N   0  0  0  0  0  0  0  0  0  0  0  0
   -2.3994    0.0418    1.8566 C   0  0  0  0  0  0  0  0  0  0  0  0
   -3.1660   -1.2983    1.7878 C   0  0  0  0  0  0  0  0  0  0  0  0
   -4.0516   -1.4764    3.0359 C   0  0  0  0  0  0  0  0  0  0  0  0
   -4.7256   -2.8642    3.0668 C   0  0  0  0  0  0  0  0  0  0  0  0
   -4.9766   -3.4569    1.6666 C   0  0  0  0  0  0  0  0  0  0  0  0
   -5.2265   -2.3595    0.6292 C   0  0  0  0  0  0  0  0  0  0  0  0
   -4.0176   -1.4106    0.4946 C   0  0  0  0  0  0  0  0  0  0  0  0
   -1.5517    0.8785   -0.3870 C   0  0  2  0  0  0  0  0  0  0  0  0
   -1.1427    0.0595   -1.6396 C   0  0  0  0  0  0  0  0  0  0  0  0
   -1.6603    0.6558   -2.9243 C   0  0  0  0  0  0  0  0  0  0  0  0
   -0.7800    1.2634   -3.8367 C   0  0  0  0  0  0  0  0  0  0  0  0
   -1.2689    1.8223   -5.0212 C   0  0  0  0  0  0  0  0  0  0  0  0
   -2.6360    1.7753   -5.3065 C   0  0  0  0  0  0  0  0  0  0  0  0
   -3.5168    1.1653   -4.4094 C   0  0  0  0  0  0  0  0  0  0  0  0
   -3.0326    0.6047   -3.2236 C   0  0  0  0  0  0  0  0  0  0  0  0
   -1.5368    4.0446   -0.9070 H   0  0  0  0  0  0  0  0  0  0  0  0
   -1.2294    2.6963    0.7307 H   0  0  0  0  0  0  0  0  0  0  0  0
    0.8466    2.0038   -1.4200 H   0  0  0  0  0  0  0  0  0  0  0  0
    1.8830    3.7916   -0.7627 H   0  0  0  0  0  0  0  0  0  0  0  0
    2.4752    1.7523    0.3916 H   0  0  0  0  0  0  0  0  0  0  0  0
    0.1590    1.9907    2.4013 H   0  0  0  0  0  0  0  0  0  0  0  0
    1.4402    3.1916    2.1130 H   0  0  0  0  0  0  0  0  0  0  0  0
    0.5054    0.7147    4.3462 H   0  0  0  0  0  0  0  0  0  0  0  0
    1.9872   -0.3390    6.0098 H   0  0  0  0  0  0  0  0  0  0  0  0
    4.4483   -0.2282    5.7399 H   0  0  0  0  0  0  0  0  0  0  0  0
    5.4308    0.9674    3.8042 H   0  0  0  0  0  0  0  0  0  0  0  0
    3.9719    2.0486    2.1407 H   0  0  0  0  0  0  0  0  0  0  0  0
    1.8942   -1.8442    0.0973 H   0  0  0  0  0  0  0  0  0  0  0  0
    3.0683   -0.7609    0.8741 H   0  0  0  0  0  0  0  0  0  0  0  0
    2.3070    0.4490   -1.6979 H   0  0  0  0  0  0  0  0  0  0  0  0
    4.8847   -0.9930   -0.8333 H   0  0  0  0  0  0  0  0  0  0  0  0
    4.4963    0.7406   -0.5533 H   0  0  0  0  0  0  0  0  0  0  0  0
    5.9646    0.4149   -2.5539 H   0  0  0  0  0  0  0  0  0  0  0  0
    4.3936    1.1773   -2.9822 H   0  0  0  0  0  0  0  0  0  0  0  0
    4.9510   -0.5734   -4.6359 H   0  0  0  0  0  0  0  0  0  0  0  0
    5.1807   -1.7943   -3.3359 H   0  0  0  0  0  0  0  0  0  0  0  0
    2.5446   -0.3637   -4.1010 H   0  0  0  0  0  0  0  0  0  0  0  0
    2.9594   -2.0910   -4.3792 H   0  0  0  0  0  0  0  0  0  0  0  0
    1.4805   -1.7933   -2.3849 H   0  0  0  0  0  0  0  0  0  0  0  0
    3.0646   -2.5217   -1.9474 H   0  0  0  0  0  0  0  0  0  0  0  0
   -1.9561    0.1778    2.8681 H   0  0  0  0  0  0  0  0  0  0  0  0
   -3.1107    0.8881    1.7331 H   0  0  0  0  0  0  0  0  0  0  0  0
   -2.4266   -2.1288    1.7890 H   0  0  0  0  0  0  0  0  0  0  0  0
   -3.4445   -1.3544    3.9596 H   0  0  0  0  0  0  0  0  0  0  0  0
   -4.8353   -0.6863    3.0425 H   0  0  0  0  0  0  0  0  0  0  0  0
   -5.6924   -2.7776    3.6090 H   0  0  0  0  0  0  0  0  0  0  0  0
   -4.0879   -3.5714    3.6407 H   0  0  0  0  0  0  0  0  0  0  0  0
   -4.0944   -4.0572    1.3520 H   0  0  0  0  0  0  0  0  0  0  0  0
   -5.8518   -4.1408    1.7044 H   0  0  0  0  0  0  0  0  0  0  0  0
   -5.4472   -2.8227   -0.3569 H   0  0  0  0  0  0  0  0  0  0  0  0
   -6.1240   -1.7766    0.9333 H   0  0  0  0  0  0  0  0  0  0  0  0
   -4.4050   -0.4138    0.1920 H   0  0  0  0  0  0  0  0  0  0  0  0
   -3.3671   -1.7781   -0.3262 H   0  0  0  0  0  0  0  0  0  0  0  0
   -2.6478    1.0405   -0.4836 H   0  0  0  0  0  0  0  0  0  0  0  0
   -1.5529   -0.9679   -1.5497 H   0  0  0  0  0  0  0  0  0  0  0  0
   -0.0482   -0.0680   -1.6943 H   0  0  0  0  0  0  0  0  0  0  0  0
    0.2831    1.3011   -3.6368 H   0  0  0  0  0  0  0  0  0  0  0  0
   -0.5871    2.2904   -5.7193 H   0  0  0  0  0  0  0  0  0  0  0  0
   -3.0124    2.2085   -6.2241 H   0  0  0  0  0  0  0  0  0  0  0  0
   -4.5750    1.1258   -4.6332 H   0  0  0  0  0  0  0  0  0  0  0  0
   -3.7258    0.1315   -2.5391 H   0  0  0  0  0  0  0  0  0  0  0  0
  1  2  1  0
  2  3  1  0
  3  4  1  0
  3  5  1  0
  5  6  1  0
  6  7  1  0
  7  8  2  0
  8  9  1  0
  9 10  2  0
 10 11  1  0
 11 12  2  0
  5 13  1  0
 13 14  1  0
 14 15  1  0
 15 16  1  0
 16 17  1  0
 17 18  1  0
 18 19  1  0
 19 20  1  0
 13 21  1  0
 21 22  2  3
 22 23  1  0
 23 24  3  0
 21 25  1  0
 25 26  1  0
 26 27  1  0
 27 28  1  0
 28 29  1  0
 29 30  1  0
 30 31  1  0
 31 32  1  0
 25 33  1  0
 33 34  1  0
 34 35  1  0
 35 36  2  0
 36 37  1  0
 37 38  2  0
 38 39  1  0
 39 40  2  0
 12  7  1  0
 20 15  1  0
 32 27  1  0
 33  2  1  0
 40 35  1  0
  1 41  1  0
  2 42  1  1
  3 43  1  6
  4 44  1  0
  5 45  1  6
  6 46  1  0
  6 47  1  0
  8 48  1  0
  9 49  1  0
 10 50  1  0
 11 51  1  0
 12 52  1  0
 14 53  1  0
 14 54  1  0
 15 55  1  0
 16 56  1  0
 16 57  1  0
 17 58  1  0
 17 59  1  0
 18 60  1  0
 18 61  1  0
 19 62  1  0
 19 63  1  0
 20 64  1  0
 20 65  1  0
 26 66  1  0
 26 67  1  0
 27 68  1  0
 28 69  1  0
 28 70  1  0
 29 71  1  0
 29 72  1  0
 30 73  1  0
 30 74  1  0
 31 75  1  0
 31 76  1  0
 32 77  1  0
 32 78  1  0
 33 79  1  6
 34 80  1  0
 34 81  1  0
 36 82  1  0
 37 83  1  0
 38 84  1  0
 39 85  1  0
 40 86  1  0
M  END
$$$$
