
     RDKit          3D

 79 82  0  0  0  0  0  0  0  0999 V2000
   -0.1258   -1.6592   -2.5926 C   0  0  0  0  0  0  0  0  0  0  0  0
   -0.6792   -0.7084   -1.5193 C   0  0  0  0  0  0  0  0  0  0  0  0
   -0.6839   -1.3946   -0.1408 C   0  0  0  0  0  0  0  0  0  0  0  0
   -2.0214    0.0163   -1.9567 C   0  0  0  0  0  0  0  0  0  0  0  0
   -3.0519   -0.9027   -2.6922 C   0  0  0  0  0  0  0  0  0  0  0  0
   -3.6689   -2.1019   -1.9385 C   0  0  0  0  0  0  0  0  0  0  0  0
   -4.6382   -1.7188   -0.8451 C   0  0  0  0  0  0  0  0  0  0  0  0
   -4.4354   -2.1620    0.4737 C   0  0  0  0  0  0  0  0  0  0  0  0
   -5.3355   -1.8115    1.4843 C   0  0  0  0  0  0  0  0  0  0  0  0
   -6.4590   -1.0345    1.1881 C   0  0  0  0  0  0  0  0  0  0  0  0
   -7.3453   -0.6899    2.2060 O   0  0  0  0  0  0  0  0  0  0  0  0
   -6.6859   -0.6157   -0.1291 C   0  0  0  0  0  0  0  0  0  0  0  0
   -5.7877   -0.9645   -1.1417 C   0  0  0  0  0  0  0  0  0  0  0  0
   -2.7058    0.7636   -0.7768 C   0  0  0  0  0  0  0  0  0  0  0  0
   -1.8871    1.9445   -0.3392 C   0  0  0  0  0  0  0  0  0  0  0  0
   -2.0135    2.3849    0.8322 O   0  0  0  0  0  0  0  0  0  0  0  0
   -1.0250    2.6422   -1.3108 C   0  0  0  0  0  0  0  0  0  0  0  0
    0.0463    3.9963   -0.7889 S   0  0  0  0  0  0  0  0  0  0  0  0
    1.3747    2.8782   -0.2779 C   0  0  0  0  0  0  0  0  0  0  0  0
    2.0745    2.2798   -1.3373 C   0  0  0  0  0  0  0  0  0  0  0  0
    2.8996    1.1713   -1.1373 C   0  0  0  0  0  0  0  0  0  0  0  0
    3.5489    0.5014   -2.3186 C   0  0  0  0  0  0  0  0  0  0  0  0
    3.0691    0.6694    0.1605 C   0  0  0  0  0  0  0  0  0  0  0  0
    3.8932   -0.4867    0.3915 N   0  0  0  0  0  0  0  0  0  0  0  0
    3.4832   -1.5890    1.2217 C   0  0  0  0  0  0  0  0  0  0  0  0
    2.3965   -1.5260    1.8596 O   0  0  0  0  0  0  0  0  0  0  0  0
    4.3152   -2.8095    1.3398 C   0  0  0  0  0  0  0  0  0  0  0  0
    5.1664   -3.2235    0.3004 C   0  0  0  0  0  0  0  0  0  0  0  0
    5.9298   -4.3841    0.4397 C   0  0  0  0  0  0  0  0  0  0  0  0
    5.8339   -5.1301    1.6143 C   0  0  0  0  0  0  0  0  0  0  0  0
    4.9986   -4.7292    2.6079 N   0  0  0  0  0  0  0  0  0  0  0  0
    4.2434   -3.6037    2.4977 C   0  0  0  0  0  0  0  0  0  0  0  0
    2.4859    1.3442    1.2403 C   0  0  0  0  0  0  0  0  0  0  0  0
    1.6606    2.4842    1.0716 C   0  0  0  0  0  0  0  0  0  0  0  0
    1.2482    3.2414    2.3709 C   0  0  0  0  0  0  0  0  0  0  0  0
    2.5315    3.6808    3.1220 C   0  0  0  0  0  0  0  0  0  0  0  0
    0.4172    4.5263    2.1619 C   0  0  0  0  0  0  0  0  0  0  0  0
    0.4326    2.3002    3.2885 C   0  0  0  0  0  0  0  0  0  0  0  0
   -1.0116    2.2135   -2.5800 C   0  0  0  0  0  0  0  0  0  0  0  0
   -0.3469    2.9366   -3.5651 O   0  0  0  0  0  0  0  0  0  0  0  0
   -1.6558    1.0151   -2.9252 O   0  0  0  0  0  0  0  0  0  0  0  0
    0.9127   -1.9609   -2.3364 H   0  0  0  0  0  0  0  0  0  0  0  0
   -0.0946   -1.1513   -3.5798 H   0  0  0  0  0  0  0  0  0  0  0  0
   -0.7427   -2.5780   -2.6703 H   0  0  0  0  0  0  0  0  0  0  0  0
    0.0965    0.0804   -1.4173 H   0  0  0  0  0  0  0  0  0  0  0  0
    0.2915   -1.8958    0.0362 H   0  0  0  0  0  0  0  0  0  0  0  0
   -1.4724   -2.1573   -0.0521 H   0  0  0  0  0  0  0  0  0  0  0  0
   -0.8032   -0.6469    0.6706 H   0  0  0  0  0  0  0  0  0  0  0  0
   -2.5753   -1.3022   -3.6126 H   0  0  0  0  0  0  0  0  0  0  0  0
   -3.8763   -0.2641   -3.0761 H   0  0  0  0  0  0  0  0  0  0  0  0
   -4.2392   -2.7036   -2.6791 H   0  0  0  0  0  0  0  0  0  0  0  0
   -2.8791   -2.7822   -1.5716 H   0  0  0  0  0  0  0  0  0  0  0  0
   -3.5834   -2.7791    0.7245 H   0  0  0  0  0  0  0  0  0  0  0  0
   -5.1620   -2.1484    2.4983 H   0  0  0  0  0  0  0  0  0  0  0  0
   -8.1694   -0.1293    2.0232 H   0  0  0  0  0  0  0  0  0  0  0  0
   -7.5601   -0.0245   -0.3701 H   0  0  0  0  0  0  0  0  0  0  0  0
   -5.9914   -0.6456   -2.1557 H   0  0  0  0  0  0  0  0  0  0  0  0
   -3.6932    1.1548   -1.1043 H   0  0  0  0  0  0  0  0  0  0  0  0
   -2.8871    0.0963    0.0875 H   0  0  0  0  0  0  0  0  0  0  0  0
    1.9129    2.6374   -2.3456 H   0  0  0  0  0  0  0  0  0  0  0  0
    4.6464    0.6632   -2.2823 H   0  0  0  0  0  0  0  0  0  0  0  0
    3.1667    0.9046   -3.2806 H   0  0  0  0  0  0  0  0  0  0  0  0
    3.3367   -0.5887   -2.3004 H   0  0  0  0  0  0  0  0  0  0  0  0
    4.8054   -0.5389   -0.1123 H   0  0  0  0  0  0  0  0  0  0  0  0
    5.2257   -2.6744   -0.6294 H   0  0  0  0  0  0  0  0  0  0  0  0
    6.5842   -4.7068   -0.3598 H   0  0  0  0  0  0  0  0  0  0  0  0
    6.4192   -6.0320    1.7342 H   0  0  0  0  0  0  0  0  0  0  0  0
    3.5960   -3.3242    3.3189 H   0  0  0  0  0  0  0  0  0  0  0  0
    2.7203    0.9849    2.2314 H   0  0  0  0  0  0  0  0  0  0  0  0
    2.2814    4.2603    4.0374 H   0  0  0  0  0  0  0  0  0  0  0  0
    3.1613    4.3204    2.4662 H   0  0  0  0  0  0  0  0  0  0  0  0
    3.1429    2.8168    3.4532 H   0  0  0  0  0  0  0  0  0  0  0  0
    0.2618    5.0560    3.1273 H   0  0  0  0  0  0  0  0  0  0  0  0
    0.9443    5.2358    1.4892 H   0  0  0  0  0  0  0  0  0  0  0  0
   -0.5980    4.2975    1.7839 H   0  0  0  0  0  0  0  0  0  0  0  0
    0.0552    2.8451    4.1811 H   0  0  0  0  0  0  0  0  0  0  0  0
    1.0433    1.4524    3.6613 H   0  0  0  0  0  0  0  0  0  0  0  0
   -0.4363    1.8793    2.7443 H   0  0  0  0  0  0  0  0  0  0  0  0
   -0.3262    2.6046   -4.5213 H   0  0  0  0  0  0  0  0  0  0  0  0
  1  2  1  0
  2  3  1  0
  2  4  1  0
  4  5  1  0
  5  6  1  0
  6  7  1  0
  7  8  2  0
  8  9  1  0
  9 10  2  0
 10 11  1  0
 10 12  1  0
 12 13  2  0
  4 14  1  0
 14 15  1  0
 15 16  2  0
 15 17  1  0
 17 18  1  0
 18 19  1  0
 19 20  2  0
 20 21  1  0
 21 22  1  0
 21 23  2  0
 23 24  1  0
 24 25  1  0
 25 26  2  0
 25 27  1  0
 27 28  2  0
 28 29  1  0
 29 30  2  0
 30 31  1  0
 31 32  2  0
 23 33  1  0
 33 34  2  0
 34 35  1  0
 35 36  1  0
 35 37  1  0
 35 38  1  0
 17 39  2  0
 39 40  1  0
 39 41  1  0
 13  7  1  0
 32 27  1  0
 34 19  1  0
 41  4  1  0
  1 42  1  0
  1 43  1  0
  1 44  1  0
  2 45  1  0
  3 46  1  0
  3 47  1  0
  3 48  1  0
  5 49  1  0
  5 50  1  0
  6 51  1  0
  6 52  1  0
  8 53  1  0
  9 54  1  0
 11 55  1  0
 12 56  1  0
 13 57  1  0
 14 58  1  0
 14 59  1  0
 20 60  1  0
 22 61  1  0
 22 62  1  0
 22 63  1  0
 24 64  1  0
 28 65  1  0
 29 66  1  0
 30 67  1  0
 32 68  1  0
 33 69  1  0
 36 70  1  0
 36 71  1  0
 36 72  1  0
 37 73  1  0
 37 74  1  0
 37 75  1  0
 38 76  1  0
 38 77  1  0
 38 78  1  0
 40 79  1  0
M  END
$$$$
