
     RDKit          3D

 69 74  0  0  0  0  0  0  0  0999 V2000
   -0.3442   -2.3203   -0.8288 O   0  0  0  0  0  0  0  0  0  0  0  0
   -0.8176   -1.2808   -0.0406 C   0  0  0  0  0  0  0  0  0  0  0  0
   -0.7875   -1.4318    1.2772 O   0  0  0  0  0  0  0  0  0  0  0  0
   -1.2141   -0.5159    2.1373 C   0  0  0  0  0  0  0  0  0  0  0  0
   -1.1155   -0.8559    3.6045 C   0  0  0  0  0  0  0  0  0  0  0  0
   -2.4189   -1.4465    4.1626 C   0  0  0  0  0  0  0  0  0  0  0  0
   -3.5032   -0.3995    4.4776 C   0  0  0  0  0  0  0  0  0  0  0  0
   -4.2293    0.1292    3.2231 C   0  0  0  0  0  0  0  0  0  0  0  0
   -3.8195    1.5588    2.8263 C   0  0  0  0  0  0  0  0  0  0  0  0
   -2.3141    1.7510    2.5922 C   0  0  0  0  0  0  0  0  0  0  0  0
   -1.7440    0.7024    1.6572 C   0  0  0  0  0  0  0  0  0  0  0  0
   -1.8135    0.8912    0.2642 C   0  0  0  0  0  0  0  0  0  0  0  0
   -2.3270    1.9500   -0.1927 O   0  0  0  0  0  0  0  0  0  0  0  0
   -1.3228   -0.0971   -0.6181 C   0  0  0  0  0  0  0  0  0  0  0  0
   -1.4038    0.1067   -2.1347 C   0  0  0  0  0  0  0  0  0  0  0  0
   -2.7417   -0.4457   -2.7094 C   0  0  0  0  0  0  0  0  0  0  0  0
   -2.9543   -1.9427   -2.8565 C   0  0  0  0  0  0  0  0  0  0  0  0
   -2.7769   -1.0690   -4.0963 C   0  0  0  0  0  0  0  0  0  0  0  0
   -0.0487   -0.0807   -2.8372 C   0  0  0  0  0  0  0  0  0  0  0  0
    0.4217   -1.3074   -3.3556 C   0  0  0  0  0  0  0  0  0  0  0  0
    1.7179   -1.4228   -3.8630 C   0  0  0  0  0  0  0  0  0  0  0  0
    2.5822   -0.3314   -3.8397 C   0  0  0  0  0  0  0  0  0  0  0  0
    2.1491    0.8931   -3.3214 C   0  0  0  0  0  0  0  0  0  0  0  0
    3.0542    1.9955   -3.2069 N   0  0  0  0  0  0  0  0  0  0  0  0
    4.5695    1.7842   -2.3947 S   0  0  0  0  0  0  0  0  0  0  0  0
    5.0604    3.1074   -1.8779 O   0  0  0  0  0  0  0  0  0  0  0  0
    5.5786    1.2438   -3.3691 O   0  0  0  0  0  0  0  0  0  0  0  0
    4.3385    0.6717   -1.0314 C   0  0  0  0  0  0  0  0  0  0  0  0
    5.0568   -0.5342   -1.0254 C   0  0  0  0  0  0  0  0  0  0  0  0
    4.8710   -1.4720   -0.0107 C   0  0  0  0  0  0  0  0  0  0  0  0
    3.9642   -1.2258    1.0174 C   0  0  0  0  0  0  0  0  0  0  0  0
    3.2325   -0.0314    1.0423 C   0  0  0  0  0  0  0  0  0  0  0  0
    2.3251    0.2108    2.0858 C   0  0  0  0  0  0  0  0  0  0  0  0
    1.5947    1.3981    2.1209 C   0  0  0  0  0  0  0  0  0  0  0  0
    1.7488    2.3450    1.1106 C   0  0  0  0  0  0  0  0  0  0  0  0
    2.6496    2.1221    0.0669 C   0  0  0  0  0  0  0  0  0  0  0  0
    3.4105    0.9338    0.0132 C   0  0  0  0  0  0  0  0  0  0  0  0
    0.8420    1.0155   -2.8359 C   0  0  0  0  0  0  0  0  0  0  0  0
    0.0196   -3.1668   -0.4087 H   0  0  0  0  0  0  0  0  0  0  0  0
   -0.3233   -1.6282    3.7166 H   0  0  0  0  0  0  0  0  0  0  0  0
   -0.7648   -0.0014    4.2162 H   0  0  0  0  0  0  0  0  0  0  0  0
   -2.8161   -2.2270    3.4768 H   0  0  0  0  0  0  0  0  0  0  0  0
   -2.1687   -1.9618    5.1159 H   0  0  0  0  0  0  0  0  0  0  0  0
   -4.2602   -0.8985    5.1219 H   0  0  0  0  0  0  0  0  0  0  0  0
   -3.0807    0.4282    5.0877 H   0  0  0  0  0  0  0  0  0  0  0  0
   -5.3217    0.1477    3.4309 H   0  0  0  0  0  0  0  0  0  0  0  0
   -4.0979   -0.5579    2.3590 H   0  0  0  0  0  0  0  0  0  0  0  0
   -4.1493    2.2653    3.6189 H   0  0  0  0  0  0  0  0  0  0  0  0
   -4.3646    1.8327    1.8967 H   0  0  0  0  0  0  0  0  0  0  0  0
   -2.1513    2.7640    2.1648 H   0  0  0  0  0  0  0  0  0  0  0  0
   -1.7812    1.7791    3.5606 H   0  0  0  0  0  0  0  0  0  0  0  0
   -1.5931    1.1894   -2.2946 H   0  0  0  0  0  0  0  0  0  0  0  0
   -3.6716    0.0961   -2.4284 H   0  0  0  0  0  0  0  0  0  0  0  0
   -2.1122   -2.6032   -2.5994 H   0  0  0  0  0  0  0  0  0  0  0  0
   -4.0024   -2.2681   -2.6865 H   0  0  0  0  0  0  0  0  0  0  0  0
   -1.8205   -1.1987   -4.6329 H   0  0  0  0  0  0  0  0  0  0  0  0
   -3.7223   -0.8903   -4.6506 H   0  0  0  0  0  0  0  0  0  0  0  0
   -0.1809   -2.1951   -3.3645 H   0  0  0  0  0  0  0  0  0  0  0  0
    2.0609   -2.3715   -4.2556 H   0  0  0  0  0  0  0  0  0  0  0  0
    3.5906   -0.4430   -4.2162 H   0  0  0  0  0  0  0  0  0  0  0  0
    2.6784    2.9674   -3.2777 H   0  0  0  0  0  0  0  0  0  0  0  0
    5.7598   -0.7606   -1.8162 H   0  0  0  0  0  0  0  0  0  0  0  0
    5.4312   -2.3980   -0.0241 H   0  0  0  0  0  0  0  0  0  0  0  0
    3.8351   -1.9698    1.7947 H   0  0  0  0  0  0  0  0  0  0  0  0
    2.1824   -0.5173    2.8756 H   0  0  0  0  0  0  0  0  0  0  0  0
    0.9034    1.5838    2.9322 H   0  0  0  0  0  0  0  0  0  0  0  0
    1.1711    3.2599    1.1390 H   0  0  0  0  0  0  0  0  0  0  0  0
    2.7401    2.8911   -0.6850 H   0  0  0  0  0  0  0  0  0  0  0  0
    0.5396    1.9606   -2.4001 H   0  0  0  0  0  0  0  0  0  0  0  0
  1  2  1  0
  2  3  1  0
  3  4  1  0
  4  5  1  0
  5  6  1  0
  6  7  1  0
  7  8  1  0
  8  9  1  0
  9 10  1  0
 10 11  1  0
 11 12  1  0
 12 13  2  0
 12 14  1  0
 14 15  1  0
 15 16  1  0
 16 17  1  0
 17 18  1  0
 15 19  1  0
 19 20  2  0
 20 21  1  0
 21 22  2  0
 22 23  1  0
 23 24  1  0
 24 25  1  0
 25 26  2  0
 25 27  2  0
 25 28  1  0
 28 29  2  0
 29 30  1  0
 30 31  2  0
 31 32  1  0
 32 33  2  0
 33 34  1  0
 34 35  2  0
 35 36  1  0
 36 37  2  0
 23 38  2  0
 11  4  2  0
 14  2  2  0
 18 16  1  0
 37 28  1  0
 37 32  1  0
 38 19  1  0
  1 39  1  0
  5 40  1  0
  5 41  1  0
  6 42  1  0
  6 43  1  0
  7 44  1  0
  7 45  1  0
  8 46  1  0
  8 47  1  0
  9 48  1  0
  9 49  1  0
 10 50  1  0
 10 51  1  0
 15 52  1  0
 16 53  1  0
 17 54  1  0
 17 55  1  0
 18 56  1  0
 18 57  1  0
 20 58  1  0
 21 59  1  0
 22 60  1  0
 24 61  1  0
 29 62  1  0
 30 63  1  0
 31 64  1  0
 33 65  1  0
 34 66  1  0
 35 67  1  0
 36 68  1  0
 38 69  1  0
M  END
$$$$
