
     RDKit          3D

 79 82  0  0  0  0  0  0  0  0999 V2000
    4.6866    3.0507    1.1593 C   0  0  0  0  0  0  0  0  0  0  0  0
    3.2875    3.4128    1.6938 C   0  0  0  0  0  0  0  0  0  0  0  0
    2.7709    4.6389    0.9169 C   0  0  0  0  0  0  0  0  0  0  0  0
    2.2998    2.1774    1.6949 C   0  0  0  0  0  0  0  0  0  0  0  0
    2.8802    1.0388    2.6139 C   0  0  0  0  0  0  0  0  0  0  0  0
    3.5903   -0.0969    1.8505 C   0  0  0  0  0  0  0  0  0  0  0  0
    4.2645   -1.0414    2.8095 C   0  0  0  0  0  0  0  0  0  0  0  0
    3.5572   -2.1273    3.3508 C   0  0  0  0  0  0  0  0  0  0  0  0
    4.1743   -2.9837    4.2676 C   0  0  0  0  0  0  0  0  0  0  0  0
    5.5006   -2.7570    4.6601 C   0  0  0  0  0  0  0  0  0  0  0  0
    6.1260   -3.6034    5.5728 O   0  0  0  0  0  0  0  0  0  0  0  0
    6.2038   -1.6687    4.1332 C   0  0  0  0  0  0  0  0  0  0  0  0
    5.5889   -0.8110    3.2161 C   0  0  0  0  0  0  0  0  0  0  0  0
    0.8989    2.5803    2.2579 C   0  0  0  0  0  0  0  0  0  0  0  0
    0.0243    3.2133    1.2194 C   0  0  0  0  0  0  0  0  0  0  0  0
   -0.8430    4.0588    1.5679 O   0  0  0  0  0  0  0  0  0  0  0  0
    0.1323    2.7992   -0.1872 C   0  0  0  0  0  0  0  0  0  0  0  0
   -1.1356    3.3351   -1.3614 S   0  0  0  0  0  0  0  0  0  0  0  0
   -2.0791    1.7904   -1.3325 C   0  0  0  0  0  0  0  0  0  0  0  0
   -2.5866    1.4012   -0.0840 C   0  0  0  0  0  0  0  0  0  0  0  0
   -3.1757    0.1505    0.1096 C   0  0  0  0  0  0  0  0  0  0  0  0
   -3.6491   -0.2412    1.4844 C   0  0  0  0  0  0  0  0  0  0  0  0
   -3.2933   -0.7280   -0.9788 C   0  0  0  0  0  0  0  0  0  0  0  0
   -3.8941   -2.0264   -0.8113 N   0  0  0  0  0  0  0  0  0  0  0  0
   -3.3956   -3.2068   -1.4635 C   0  0  0  0  0  0  0  0  0  0  0  0
   -2.2237   -3.2124   -1.9315 O   0  0  0  0  0  0  0  0  0  0  0  0
   -4.2237   -4.4330   -1.5592 C   0  0  0  0  0  0  0  0  0  0  0  0
   -3.6227   -5.6807   -1.7981 C   0  0  0  0  0  0  0  0  0  0  0  0
   -4.4063   -6.8319   -1.8931 C   0  0  0  0  0  0  0  0  0  0  0  0
   -5.7905   -6.7298   -1.7566 C   0  0  0  0  0  0  0  0  0  0  0  0
   -6.3644   -5.5177   -1.5388 N   0  0  0  0  0  0  0  0  0  0  0  0
   -5.6242   -4.3811   -1.4392 C   0  0  0  0  0  0  0  0  0  0  0  0
   -2.8890   -0.3040   -2.2538 C   0  0  0  0  0  0  0  0  0  0  0  0
   -2.3202    0.9765   -2.4865 C   0  0  0  0  0  0  0  0  0  0  0  0
   -2.1075    1.4843   -3.9502 C   0  0  0  0  0  0  0  0  0  0  0  0
   -2.9068    2.7890   -4.1812 C   0  0  0  0  0  0  0  0  0  0  0  0
   -2.6151    0.4777   -5.0201 C   0  0  0  0  0  0  0  0  0  0  0  0
   -0.6135    1.7191   -4.2549 C   0  0  0  0  0  0  0  0  0  0  0  0
    1.1761    2.0527   -0.5647 C   0  0  0  0  0  0  0  0  0  0  0  0
    1.2999    1.6334   -1.8817 O   0  0  0  0  0  0  0  0  0  0  0  0
    2.1619    1.6679    0.3561 O   0  0  0  0  0  0  0  0  0  0  0  0
    5.3329    3.9531    1.1101 H   0  0  0  0  0  0  0  0  0  0  0  0
    5.1990    2.3400    1.8381 H   0  0  0  0  0  0  0  0  0  0  0  0
    4.6191    2.6129    0.1408 H   0  0  0  0  0  0  0  0  0  0  0  0
    3.4217    3.7480    2.7468 H   0  0  0  0  0  0  0  0  0  0  0  0
    1.8636    5.0600    1.3933 H   0  0  0  0  0  0  0  0  0  0  0  0
    3.5283    5.4517    0.9318 H   0  0  0  0  0  0  0  0  0  0  0  0
    2.5636    4.3853   -0.1428 H   0  0  0  0  0  0  0  0  0  0  0  0
    2.0810    0.5507    3.2128 H   0  0  0  0  0  0  0  0  0  0  0  0
    3.5738    1.4695    3.3695 H   0  0  0  0  0  0  0  0  0  0  0  0
    2.8440   -0.6569    1.2449 H   0  0  0  0  0  0  0  0  0  0  0  0
    4.3402    0.3053    1.1394 H   0  0  0  0  0  0  0  0  0  0  0  0
    2.5286   -2.3088    3.0641 H   0  0  0  0  0  0  0  0  0  0  0  0
    3.6205   -3.8200    4.6748 H   0  0  0  0  0  0  0  0  0  0  0  0
    5.6434   -4.3994    5.9731 H   0  0  0  0  0  0  0  0  0  0  0  0
    7.2266   -1.4857    4.4373 H   0  0  0  0  0  0  0  0  0  0  0  0
    6.1435    0.0327    2.8244 H   0  0  0  0  0  0  0  0  0  0  0  0
    1.0137    3.2588    3.1315 H   0  0  0  0  0  0  0  0  0  0  0  0
    0.3368    1.6868    2.6045 H   0  0  0  0  0  0  0  0  0  0  0  0
   -2.4816    2.0677    0.7614 H   0  0  0  0  0  0  0  0  0  0  0  0
   -4.7584   -0.2774    1.5003 H   0  0  0  0  0  0  0  0  0  0  0  0
   -3.3121    0.4829    2.2566 H   0  0  0  0  0  0  0  0  0  0  0  0
   -3.2427   -1.2381    1.7572 H   0  0  0  0  0  0  0  0  0  0  0  0
   -4.6621   -2.1356   -0.1127 H   0  0  0  0  0  0  0  0  0  0  0  0
   -2.5482   -5.7677   -1.9016 H   0  0  0  0  0  0  0  0  0  0  0  0
   -3.9445   -7.7945   -2.0708 H   0  0  0  0  0  0  0  0  0  0  0  0
   -6.4101   -7.6136   -1.8288 H   0  0  0  0  0  0  0  0  0  0  0  0
   -6.1365   -3.4410   -1.2881 H   0  0  0  0  0  0  0  0  0  0  0  0
   -3.0728   -0.9922   -3.0616 H   0  0  0  0  0  0  0  0  0  0  0  0
   -3.9722    2.6425   -3.9002 H   0  0  0  0  0  0  0  0  0  0  0  0
   -2.8689    3.0942   -5.2497 H   0  0  0  0  0  0  0  0  0  0  0  0
   -2.5105    3.6427   -3.6035 H   0  0  0  0  0  0  0  0  0  0  0  0
   -2.0363   -0.4709   -4.9837 H   0  0  0  0  0  0  0  0  0  0  0  0
   -2.4924    0.8873   -6.0468 H   0  0  0  0  0  0  0  0  0  0  0  0
   -3.6974    0.2623   -4.8843 H   0  0  0  0  0  0  0  0  0  0  0  0
   -0.4563    1.9154   -5.3379 H   0  0  0  0  0  0  0  0  0  0  0  0
   -0.2072    2.6017   -3.7309 H   0  0  0  0  0  0  0  0  0  0  0  0
   -0.0214    0.8196   -3.9826 H   0  0  0  0  0  0  0  0  0  0  0  0
    2.0867    1.0650   -2.1700 H   0  0  0  0  0  0  0  0  0  0  0  0
  1  2  1  0
  2  3  1  0
  2  4  1  0
  4  5  1  0
  5  6  1  0
  6  7  1  0
  7  8  2  0
  8  9  1  0
  9 10  2  0
 10 11  1  0
 10 12  1  0
 12 13  2  0
  4 14  1  0
 14 15  1  0
 15 16  2  0
 15 17  1  0
 17 18  1  0
 18 19  1  0
 19 20  2  0
 20 21  1  0
 21 22  1  0
 21 23  2  0
 23 24  1  0
 24 25  1  0
 25 26  2  0
 25 27  1  0
 27 28  2  0
 28 29  1  0
 29 30  2  0
 30 31  1  0
 31 32  2  0
 23 33  1  0
 33 34  2  0
 34 35  1  0
 35 36  1  0
 35 37  1  0
 35 38  1  0
 17 39  2  0
 39 40  1  0
 39 41  1  0
 13  7  1  0
 32 27  1  0
 34 19  1  0
 41  4  1  0
  1 42  1  0
  1 43  1  0
  1 44  1  0
  2 45  1  0
  3 46  1  0
  3 47  1  0
  3 48  1  0
  5 49  1  0
  5 50  1  0
  6 51  1  0
  6 52  1  0
  8 53  1  0
  9 54  1  0
 11 55  1  0
 12 56  1  0
 13 57  1  0
 14 58  1  0
 14 59  1  0
 20 60  1  0
 22 61  1  0
 22 62  1  0
 22 63  1  0
 24 64  1  0
 28 65  1  0
 29 66  1  0
 30 67  1  0
 32 68  1  0
 33 69  1  0
 36 70  1  0
 36 71  1  0
 36 72  1  0
 37 73  1  0
 37 74  1  0
 37 75  1  0
 38 76  1  0
 38 77  1  0
 38 78  1  0
 40 79  1  0
M  END
$$$$
