
     RDKit          3D

 77 81  0  0  0  0  0  0  0  0999 V2000
    5.7523    0.1357    2.5241 C   0  0  0  0  0  0  0  0  0  0  0  0
    6.1660   -0.6579    1.2690 C   0  0  0  0  0  0  0  0  0  0  0  0
    6.0920   -2.1728    1.5431 C   0  0  0  0  0  0  0  0  0  0  0  0
    7.6246   -0.2954    0.9206 C   0  0  0  0  0  0  0  0  0  0  0  0
    5.2975   -0.3020    0.1293 N   0  0  0  0  0  0  0  0  0  0  0  0
    3.8738   -0.5187    0.0754 C   0  0  0  0  0  0  0  0  0  0  0  0
    3.2635   -0.9723    1.0779 O   0  0  0  0  0  0  0  0  0  0  0  0
    3.1276   -0.2205   -1.1720 C   0  0  0  0  0  0  0  0  0  0  0  0
    3.6972   -0.6264   -2.3929 C   0  0  0  0  0  0  0  0  0  0  0  0
    3.0919   -0.3036   -3.6070 C   0  0  0  0  0  0  0  0  0  0  0  0
    1.9201    0.4477   -3.6241 C   0  0  0  0  0  0  0  0  0  0  0  0
    1.3367    0.8601   -2.4266 C   0  0  0  0  0  0  0  0  0  0  0  0
    1.9028    0.5066   -1.1868 C   0  0  0  0  0  0  0  0  0  0  0  0
    1.2179    0.9846    0.0775 C   0  0  0  0  0  0  0  0  0  0  0  0
    0.3003   -0.0809    0.7412 C   0  0  1  0  0  0  0  0  0  0  0  0
    0.0101    0.3349    2.0521 O   0  0  0  0  0  0  0  0  0  0  0  0
   -1.0485   -0.3692    0.0074 C   0  0  2  0  0  0  0  0  0  0  0  0
   -0.9345   -1.4816   -1.0597 C   0  0  0  0  0  0  0  0  0  0  0  0
   -0.5495   -3.1232   -0.3400 S   0  0  0  0  0  0  0  0  0  0  0  0
   -2.2251   -3.4761    0.2013 C   0  0  0  0  0  0  0  0  0  0  0  0
   -2.5964   -3.2368    1.5295 C   0  0  0  0  0  0  0  0  0  0  0  0
   -3.8970   -3.5135    1.9590 C   0  0  0  0  0  0  0  0  0  0  0  0
   -4.8373   -4.0429    1.0626 C   0  0  0  0  0  0  0  0  0  0  0  0
   -6.1472   -4.3234    1.4813 C   0  0  0  0  0  0  0  0  0  0  0  0
   -7.0739   -4.8528    0.5784 C   0  0  0  0  0  0  0  0  0  0  0  0
   -6.7017   -5.1061   -0.7446 C   0  0  0  0  0  0  0  0  0  0  0  0
   -5.4002   -4.8316   -1.1746 C   0  0  0  0  0  0  0  0  0  0  0  0
   -4.4600   -4.2993   -0.2787 C   0  0  0  0  0  0  0  0  0  0  0  0
   -3.1510   -4.0178   -0.6981 C   0  0  0  0  0  0  0  0  0  0  0  0
   -1.6217    0.8444   -0.5876 N   0  0  0  0  0  0  0  0  0  0  0  0
   -2.1818    1.9051    0.2010 C   0  0  0  0  0  0  0  0  0  0  0  0
   -2.3335    1.7615    1.4443 O   0  0  0  0  0  0  0  0  0  0  0  0
   -2.6064    3.1644   -0.4449 C   0  0  0  0  0  0  0  0  0  0  0  0
   -3.4752    3.0921   -1.5437 C   0  0  0  0  0  0  0  0  0  0  0  0
   -3.9293    4.2613   -2.1524 C   0  0  0  0  0  0  0  0  0  0  0  0
   -3.5291    5.4724   -1.6898 N   0  0  0  0  0  0  0  0  0  0  0  0
   -2.6772    5.5929   -0.6378 C   0  0  0  0  0  0  0  0  0  0  0  0
   -2.2831    6.8665   -0.2115 C   0  0  0  0  0  0  0  0  0  0  0  0
   -1.3862    7.0052    0.8492 C   0  0  0  0  0  0  0  0  0  0  0  0
   -0.8720    5.8735    1.4844 C   0  0  0  0  0  0  0  0  0  0  0  0
   -1.2593    4.5954    1.0714 C   0  0  0  0  0  0  0  0  0  0  0  0
   -2.1810    4.4356    0.0148 C   0  0  0  0  0  0  0  0  0  0  0  0
    6.4722   -0.0399    3.3525 H   0  0  0  0  0  0  0  0  0  0  0  0
    4.7488   -0.1657    2.8867 H   0  0  0  0  0  0  0  0  0  0  0  0
    5.7308    1.2240    2.3006 H   0  0  0  0  0  0  0  0  0  0  0  0
    6.8210   -2.4640    2.3300 H   0  0  0  0  0  0  0  0  0  0  0  0
    5.0841   -2.4748    1.8935 H   0  0  0  0  0  0  0  0  0  0  0  0
    6.3252   -2.7424    0.6178 H   0  0  0  0  0  0  0  0  0  0  0  0
    8.3102   -0.5541    1.7566 H   0  0  0  0  0  0  0  0  0  0  0  0
    7.7163    0.7937    0.7180 H   0  0  0  0  0  0  0  0  0  0  0  0
    7.9552   -0.8467    0.0138 H   0  0  0  0  0  0  0  0  0  0  0  0
    5.7360    0.1585   -0.7012 H   0  0  0  0  0  0  0  0  0  0  0  0
    4.6172   -1.1982   -2.4071 H   0  0  0  0  0  0  0  0  0  0  0  0
    3.5422   -0.6235   -4.5378 H   0  0  0  0  0  0  0  0  0  0  0  0
    1.4638    0.7156   -4.5683 H   0  0  0  0  0  0  0  0  0  0  0  0
    0.4393    1.4613   -2.4703 H   0  0  0  0  0  0  0  0  0  0  0  0
    0.6461    1.9160   -0.1201 H   0  0  0  0  0  0  0  0  0  0  0  0
    1.9989    1.2961    0.8037 H   0  0  0  0  0  0  0  0  0  0  0  0
    0.8571   -1.0393    0.8040 H   0  0  0  0  0  0  0  0  0  0  0  0
    0.8186    0.1610    2.6025 H   0  0  0  0  0  0  0  0  0  0  0  0
   -1.7758   -0.7415    0.7593 H   0  0  0  0  0  0  0  0  0  0  0  0
   -1.8852   -1.5509   -1.6315 H   0  0  0  0  0  0  0  0  0  0  0  0
   -0.1410   -1.2400   -1.7898 H   0  0  0  0  0  0  0  0  0  0  0  0
   -1.8772   -2.8322    2.2304 H   0  0  0  0  0  0  0  0  0  0  0  0
   -4.1667   -3.3153    2.9895 H   0  0  0  0  0  0  0  0  0  0  0  0
   -6.4532   -4.1339    2.5033 H   0  0  0  0  0  0  0  0  0  0  0  0
   -8.0831   -5.0677    0.9051 H   0  0  0  0  0  0  0  0  0  0  0  0
   -7.4239   -5.5163   -1.4387 H   0  0  0  0  0  0  0  0  0  0  0  0
   -5.1296   -5.0340   -2.2041 H   0  0  0  0  0  0  0  0  0  0  0  0
   -2.8505   -4.2099   -1.7215 H   0  0  0  0  0  0  0  0  0  0  0  0
   -1.6522    0.9355   -1.6280 H   0  0  0  0  0  0  0  0  0  0  0  0
   -3.8199    2.1345   -1.9151 H   0  0  0  0  0  0  0  0  0  0  0  0
   -4.6079    4.2056   -2.9930 H   0  0  0  0  0  0  0  0  0  0  0  0
   -2.6661    7.7505   -0.7063 H   0  0  0  0  0  0  0  0  0  0  0  0
   -1.0815    7.9919    1.1734 H   0  0  0  0  0  0  0  0  0  0  0  0
   -0.1660    5.9866    2.2970 H   0  0  0  0  0  0  0  0  0  0  0  0
   -0.8193    3.7449    1.5734 H   0  0  0  0  0  0  0  0  0  0  0  0
  1  2  1  0
  2  3  1  0
  2  4  1  0
  2  5  1  0
  5  6  1  0
  6  7  2  0
  6  8  1  0
  8  9  2  0
  9 10  1  0
 10 11  2  0
 11 12  1  0
 12 13  2  0
 13 14  1  0
 14 15  1  0
 15 16  1  0
 15 17  1  0
 17 18  1  0
 18 19  1  0
 19 20  1  0
 20 21  2  0
 21 22  1  0
 22 23  2  0
 23 24  1  0
 24 25  2  0
 25 26  1  0
 26 27  2  0
 27 28  1  0
 28 29  2  0
 17 30  1  0
 30 31  1  0
 31 32  2  0
 31 33  1  0
 33 34  2  0
 34 35  1  0
 35 36  2  0
 36 37  1  0
 37 38  2  0
 38 39  1  0
 39 40  2  0
 40 41  1  0
 41 42  2  0
 13  8  1  0
 28 23  1  0
 29 20  1  0
 42 33  1  0
 42 37  1  0
  1 43  1  0
  1 44  1  0
  1 45  1  0
  3 46  1  0
  3 47  1  0
  3 48  1  0
  4 49  1  0
  4 50  1  0
  4 51  1  0
  5 52  1  0
  9 53  1  0
 10 54  1  0
 11 55  1  0
 12 56  1  0
 14 57  1  0
 14 58  1  0
 15 59  1  1
 16 60  1  0
 17 61  1  1
 18 62  1  0
 18 63  1  0
 21 64  1  0
 22 65  1  0
 24 66  1  0
 25 67  1  0
 26 68  1  0
 27 69  1  0
 29 70  1  0
 30 71  1  0
 34 72  1  0
 35 73  1  0
 38 74  1  0
 39 75  1  0
 40 76  1  0
 41 77  1  0
M  END
$$$$
