
     RDKit          3D

 77 80  0  0  0  0  0  0  0  0999 V2000
    5.1583   -0.5471    1.0468 C   0  0  0  0  0  0  0  0  0  0  0  0
    4.5426   -1.9221    1.1263 C   0  0  0  0  0  0  0  0  0  0  0  0
    5.3192   -3.0427    0.7609 C   0  0  0  0  0  0  0  0  0  0  0  0
    6.6236   -2.8717    0.2956 O   0  0  0  0  0  0  0  0  0  0  0  0
    4.7853   -4.3333    0.8658 C   0  0  0  0  0  0  0  0  0  0  0  0
    3.4839   -4.5212    1.3256 C   0  0  0  0  0  0  0  0  0  0  0  0
    2.6964   -3.4221    1.6647 C   0  0  0  0  0  0  0  0  0  0  0  0
    3.2009   -2.1167    1.5487 C   0  0  0  0  0  0  0  0  0  0  0  0
    2.2929   -0.9934    1.8631 C   0  0  0  0  0  0  0  0  0  0  0  0
    1.6434   -1.0131    2.9439 O   0  0  0  0  0  0  0  0  0  0  0  0
    2.0894    0.0664    0.9143 N   0  0  0  0  0  0  0  0  0  0  0  0
    1.0179    1.0610    1.0474 C   0  0  2  0  0  0  0  0  0  0  0  0
   -0.0691    0.8281   -0.0249 C   0  0  0  0  0  0  0  0  0  0  0  0
   -0.8709   -0.4819    0.1980 C   0  0  2  0  0  0  0  0  0  0  0  0
   -0.0893   -1.6395    0.0190 O   0  0  0  0  0  0  0  0  0  0  0  0
   -2.1677   -0.5599   -0.6591 C   0  0  2  0  0  0  0  0  0  0  0  0
   -1.9607   -0.3319   -2.1795 C   0  0  0  0  0  0  0  0  0  0  0  0
   -1.0838   -1.3682   -2.8375 C   0  0  0  0  0  0  0  0  0  0  0  0
   -1.4963   -2.7103   -2.9040 C   0  0  0  0  0  0  0  0  0  0  0  0
   -0.6767   -3.6710   -3.5042 C   0  0  0  0  0  0  0  0  0  0  0  0
    0.5545   -3.2994   -4.0504 C   0  0  0  0  0  0  0  0  0  0  0  0
    0.9654   -1.9648   -4.0042 C   0  0  0  0  0  0  0  0  0  0  0  0
    0.1488   -1.0001   -3.4065 C   0  0  0  0  0  0  0  0  0  0  0  0
   -3.1462    0.4121   -0.1546 N   0  0  0  0  0  0  0  0  0  0  0  0
   -3.8789    0.2093    1.0638 C   0  0  0  0  0  0  0  0  0  0  0  0
   -3.8464   -0.9119    1.6409 O   0  0  0  0  0  0  0  0  0  0  0  0
   -4.6396    1.3256    1.6703 C   0  0  0  0  0  0  0  0  0  0  0  0
   -4.0249    2.5876    1.7272 C   0  0  0  0  0  0  0  0  0  0  0  0
   -4.6575    3.6590    2.3526 C   0  0  0  0  0  0  0  0  0  0  0  0
   -5.9020    3.4827    2.9505 C   0  0  0  0  0  0  0  0  0  0  0  0
   -6.5405    2.2399    2.9120 C   0  0  0  0  0  0  0  0  0  0  0  0
   -7.7665    2.1192    3.5715 O   0  0  0  0  0  0  0  0  0  0  0  0
   -5.9374    1.1535    2.2273 C   0  0  0  0  0  0  0  0  0  0  0  0
   -6.6811   -0.1552    2.0910 C   0  0  0  0  0  0  0  0  0  0  0  0
    1.5984    2.4916    0.9841 C   0  0  0  0  0  0  0  0  0  0  0  0
    2.2974    2.8078   -0.3178 C   0  0  0  0  0  0  0  0  0  0  0  0
    3.6809    2.6008   -0.4484 C   0  0  0  0  0  0  0  0  0  0  0  0
    4.3225    2.8616   -1.6627 C   0  0  0  0  0  0  0  0  0  0  0  0
    3.5904    3.3379   -2.7533 C   0  0  0  0  0  0  0  0  0  0  0  0
    2.2163    3.5596   -2.6293 C   0  0  0  0  0  0  0  0  0  0  0  0
    1.5713    3.3003   -1.4163 C   0  0  0  0  0  0  0  0  0  0  0  0
    6.2373   -0.5821    1.3064 H   0  0  0  0  0  0  0  0  0  0  0  0
    5.0534   -0.1529    0.0149 H   0  0  0  0  0  0  0  0  0  0  0  0
    4.6846    0.1527    1.7656 H   0  0  0  0  0  0  0  0  0  0  0  0
    7.2008   -3.6604    0.0279 H   0  0  0  0  0  0  0  0  0  0  0  0
    5.3825   -5.1941    0.5927 H   0  0  0  0  0  0  0  0  0  0  0  0
    3.0790   -5.5217    1.4075 H   0  0  0  0  0  0  0  0  0  0  0  0
    1.6781   -3.5892    1.9954 H   0  0  0  0  0  0  0  0  0  0  0  0
    2.6042    0.0213    0.0064 H   0  0  0  0  0  0  0  0  0  0  0  0
    0.5348    0.9734    2.0453 H   0  0  0  0  0  0  0  0  0  0  0  0
   -0.7781    1.6839    0.0053 H   0  0  0  0  0  0  0  0  0  0  0  0
    0.4003    0.8152   -1.0300 H   0  0  0  0  0  0  0  0  0  0  0  0
   -1.1895   -0.4894    1.2627 H   0  0  0  0  0  0  0  0  0  0  0  0
    0.5364   -1.4904   -0.7339 H   0  0  0  0  0  0  0  0  0  0  0  0
   -2.6012   -1.5766   -0.5332 H   0  0  0  0  0  0  0  0  0  0  0  0
   -1.5661    0.6911   -2.3612 H   0  0  0  0  0  0  0  0  0  0  0  0
   -2.9542   -0.3674   -2.6779 H   0  0  0  0  0  0  0  0  0  0  0  0
   -2.4501   -3.0128   -2.4906 H   0  0  0  0  0  0  0  0  0  0  0  0
   -0.9967   -4.7040   -3.5467 H   0  0  0  0  0  0  0  0  0  0  0  0
    1.1881   -4.0447   -4.5135 H   0  0  0  0  0  0  0  0  0  0  0  0
    1.9171   -1.6772   -4.4319 H   0  0  0  0  0  0  0  0  0  0  0  0
    0.4831    0.0295   -3.3808 H   0  0  0  0  0  0  0  0  0  0  0  0
   -3.3133    1.2939   -0.6916 H   0  0  0  0  0  0  0  0  0  0  0  0
   -3.0365    2.7388    1.3098 H   0  0  0  0  0  0  0  0  0  0  0  0
   -4.1695    4.6243    2.3955 H   0  0  0  0  0  0  0  0  0  0  0  0
   -6.3711    4.3155    3.4593 H   0  0  0  0  0  0  0  0  0  0  0  0
   -8.2542    1.2407    3.6874 H   0  0  0  0  0  0  0  0  0  0  0  0
   -6.3196   -0.7522    1.2296 H   0  0  0  0  0  0  0  0  0  0  0  0
   -6.5712   -0.7479    3.0230 H   0  0  0  0  0  0  0  0  0  0  0  0
   -7.7567    0.0244    1.8867 H   0  0  0  0  0  0  0  0  0  0  0  0
    2.3095    2.6245    1.8290 H   0  0  0  0  0  0  0  0  0  0  0  0
    0.7811    3.2271    1.1526 H   0  0  0  0  0  0  0  0  0  0  0  0
    4.2612    2.2386    0.3897 H   0  0  0  0  0  0  0  0  0  0  0  0
    5.3876    2.6946   -1.7578 H   0  0  0  0  0  0  0  0  0  0  0  0
    4.0882    3.5385   -3.6932 H   0  0  0  0  0  0  0  0  0  0  0  0
    1.6505    3.9318   -3.4735 H   0  0  0  0  0  0  0  0  0  0  0  0
    0.5059    3.4763   -1.3357 H   0  0  0  0  0  0  0  0  0  0  0  0
  1  2  1  0
  2  3  2  0
  3  4  1  0
  3  5  1  0
  5  6  2  0
  6  7  1  0
  7  8  2  0
  8  9  1  0
  9 10  2  0
  9 11  1  0
 11 12  1  0
 12 13  1  0
 13 14  1  0
 14 15  1  0
 14 16  1  0
 16 17  1  0
 17 18  1  0
 18 19  2  0
 19 20  1  0
 20 21  2  0
 21 22  1  0
 22 23  2  0
 16 24  1  0
 24 25  1  0
 25 26  2  0
 25 27  1  0
 27 28  2  0
 28 29  1  0
 29 30  2  0
 30 31  1  0
 31 32  1  0
 31 33  2  0
 33 34  1  0
 12 35  1  0
 35 36  1  0
 36 37  2  0
 37 38  1  0
 38 39  2  0
 39 40  1  0
 40 41  2  0
  8  2  1  0
 23 18  1  0
 33 27  1  0
 41 36  1  0
  1 42  1  0
  1 43  1  0
  1 44  1  0
  4 45  1  0
  5 46  1  0
  6 47  1  0
  7 48  1  0
 11 49  1  0
 12 50  1  1
 13 51  1  0
 13 52  1  0
 14 53  1  1
 15 54  1  0
 16 55  1  6
 17 56  1  0
 17 57  1  0
 19 58  1  0
 20 59  1  0
 21 60  1  0
 22 61  1  0
 23 62  1  0
 24 63  1  0
 28 64  1  0
 29 65  1  0
 30 66  1  0
 32 67  1  0
 34 68  1  0
 34 69  1  0
 34 70  1  0
 35 71  1  0
 35 72  1  0
 37 73  1  0
 38 74  1  0
 39 75  1  0
 40 76  1  0
 41 77  1  0
M  END
$$$$
