
     RDKit          3D

 84 87  0  0  0  0  0  0  0  0999 V2000
    1.9857    3.9748    1.0566 C   0  0  0  0  0  0  0  0  0  0  0  0
    2.0211    3.6157   -0.4411 C   0  0  0  0  0  0  0  0  0  0  0  0
    2.7174    4.7548   -1.2032 C   0  0  0  0  0  0  0  0  0  0  0  0
    2.7036    2.2265   -0.6545 C   0  0  0  0  0  0  0  0  0  0  0  0
    2.0131    1.2186    0.1636 N   0  0  0  0  0  0  0  0  0  0  0  0
    2.6580    0.4777    1.2107 C   0  0  0  0  0  0  0  0  0  0  0  0
    3.7965    0.8200    1.6306 O   0  0  0  0  0  0  0  0  0  0  0  0
    2.0025   -0.7419    1.7823 C   0  0  0  0  0  0  0  0  0  0  0  0
    2.6404   -2.0031    1.1817 C   0  0  2  0  0  0  0  0  0  0  0  0
    2.3398   -2.1103   -0.1905 O   0  0  0  0  0  0  0  0  0  0  0  0
    1.8496   -3.1495    0.6280 C   0  0  2  0  0  0  0  0  0  0  0  0
    0.2973   -3.2248    0.6715 C   0  0  2  0  0  0  0  0  0  0  0  0
   -0.4373   -2.2994   -0.3381 C   0  0  0  0  0  0  0  0  0  0  0  0
   -0.2198   -2.7121   -1.7727 C   0  0  0  0  0  0  0  0  0  0  0  0
   -0.8089   -3.8876   -2.2689 C   0  0  0  0  0  0  0  0  0  0  0  0
   -0.6329   -4.2538   -3.6069 C   0  0  0  0  0  0  0  0  0  0  0  0
    0.1263   -3.4479   -4.4597 C   0  0  0  0  0  0  0  0  0  0  0  0
    0.7099   -2.2740   -3.9761 C   0  0  0  0  0  0  0  0  0  0  0  0
    0.5370   -1.9055   -2.6395 C   0  0  0  0  0  0  0  0  0  0  0  0
   -0.2024   -3.0200    2.0369 N   0  0  0  0  0  0  0  0  0  0  0  0
   -1.5665   -3.2747    2.3952 C   0  0  0  0  0  0  0  0  0  0  0  0
   -2.2553   -4.0878    1.7190 O   0  0  0  0  0  0  0  0  0  0  0  0
   -2.2070   -2.4599    3.4861 C   0  0  0  0  0  0  0  0  0  0  0  0
   -3.3559   -3.2197    4.1720 C   0  0  0  0  0  0  0  0  0  0  0  0
   -3.9040   -2.4353    5.3282 C   0  0  0  0  0  0  0  0  0  0  0  0
   -5.0221   -1.5660    5.1484 N   0  0  0  0  0  0  0  0  0  0  0  0
   -3.3489   -2.5125    6.4567 O   0  0  0  0  0  0  0  0  0  0  0  0
   -2.6981   -1.2157    2.8924 N   0  0  0  0  0  0  0  0  0  0  0  0
   -1.9276   -0.0071    2.9292 C   0  0  0  0  0  0  0  0  0  0  0  0
   -1.2622    0.2827    3.9604 O   0  0  0  0  0  0  0  0  0  0  0  0
   -1.9010    0.8866    1.7566 C   0  0  0  0  0  0  0  0  0  0  0  0
   -1.4902    2.2241    1.8702 C   0  0  0  0  0  0  0  0  0  0  0  0
   -1.4618    3.0360    0.7341 C   0  0  0  0  0  0  0  0  0  0  0  0
   -1.8067    2.5033   -0.5135 C   0  0  0  0  0  0  0  0  0  0  0  0
   -1.7619    3.2828   -1.6792 C   0  0  0  0  0  0  0  0  0  0  0  0
   -2.0854    2.7111   -2.9140 C   0  0  0  0  0  0  0  0  0  0  0  0
   -2.4568    1.3644   -2.9909 C   0  0  0  0  0  0  0  0  0  0  0  0
   -2.5161    0.5842   -1.8320 C   0  0  0  0  0  0  0  0  0  0  0  0
   -2.1954    1.1487   -0.5921 C   0  0  0  0  0  0  0  0  0  0  0  0
   -2.2436    0.3918    0.5355 N   0  0  0  0  0  0  0  0  0  0  0  0
    2.7645    1.6942   -2.1245 C   0  0  0  0  0  0  0  0  0  0  0  0
    1.4537    1.8675   -2.9080 C   0  0  0  0  0  0  0  0  0  0  0  0
    3.9627    2.2285   -2.9262 C   0  0  0  0  0  0  0  0  0  0  0  0
    3.0168    4.0427    1.4656 H   0  0  0  0  0  0  0  0  0  0  0  0
    1.4739    4.9488    1.2097 H   0  0  0  0  0  0  0  0  0  0  0  0
    1.4196    3.2167    1.6365 H   0  0  0  0  0  0  0  0  0  0  0  0
    0.9695    3.5627   -0.7892 H   0  0  0  0  0  0  0  0  0  0  0  0
    2.4592    4.7230   -2.2788 H   0  0  0  0  0  0  0  0  0  0  0  0
    2.3695    5.7446   -0.8374 H   0  0  0  0  0  0  0  0  0  0  0  0
    3.8196    4.7024   -1.0748 H   0  0  0  0  0  0  0  0  0  0  0  0
    3.7520    2.3232   -0.2948 H   0  0  0  0  0  0  0  0  0  0  0  0
    1.0163    0.9979   -0.0581 H   0  0  0  0  0  0  0  0  0  0  0  0
    2.1686   -0.7574    2.8803 H   0  0  0  0  0  0  0  0  0  0  0  0
    0.9107   -0.6808    1.6294 H   0  0  0  0  0  0  0  0  0  0  0  0
    3.7227   -2.1791    1.3581 H   0  0  0  0  0  0  0  0  0  0  0  0
    2.4135   -4.0913    0.4586 H   0  0  0  0  0  0  0  0  0  0  0  0
    0.0495   -4.2732    0.3952 H   0  0  0  0  0  0  0  0  0  0  0  0
   -0.1382   -1.2432   -0.1994 H   0  0  0  0  0  0  0  0  0  0  0  0
   -1.5307   -2.3292   -0.1476 H   0  0  0  0  0  0  0  0  0  0  0  0
   -1.4092   -4.5148   -1.6220 H   0  0  0  0  0  0  0  0  0  0  0  0
   -1.0894   -5.1602   -3.9838 H   0  0  0  0  0  0  0  0  0  0  0  0
    0.2602   -3.7321   -5.4954 H   0  0  0  0  0  0  0  0  0  0  0  0
    1.2952   -1.6479   -4.6372 H   0  0  0  0  0  0  0  0  0  0  0  0
    0.9898   -0.9914   -2.2816 H   0  0  0  0  0  0  0  0  0  0  0  0
    0.4400   -2.6897    2.7906 H   0  0  0  0  0  0  0  0  0  0  0  0
   -1.4353   -2.2409    4.2581 H   0  0  0  0  0  0  0  0  0  0  0  0
   -2.9820   -4.1980    4.5469 H   0  0  0  0  0  0  0  0  0  0  0  0
   -4.1717   -3.4258    3.4446 H   0  0  0  0  0  0  0  0  0  0  0  0
   -5.4733   -1.4626    4.2126 H   0  0  0  0  0  0  0  0  0  0  0  0
   -5.3922   -1.0112    5.9515 H   0  0  0  0  0  0  0  0  0  0  0  0
   -3.4868   -1.2800    2.2085 H   0  0  0  0  0  0  0  0  0  0  0  0
   -1.2039    2.6394    2.8282 H   0  0  0  0  0  0  0  0  0  0  0  0
   -1.1561    4.0711    0.8276 H   0  0  0  0  0  0  0  0  0  0  0  0
   -1.4666    4.3245   -1.6366 H   0  0  0  0  0  0  0  0  0  0  0  0
   -2.0406    3.3104   -3.8139 H   0  0  0  0  0  0  0  0  0  0  0  0
   -2.6992    0.9252   -3.9500 H   0  0  0  0  0  0  0  0  0  0  0  0
   -2.8040   -0.4575   -1.9002 H   0  0  0  0  0  0  0  0  0  0  0  0
    2.9407    0.5966   -2.0533 H   0  0  0  0  0  0  0  0  0  0  0  0
    1.2552    2.9333   -3.1402 H   0  0  0  0  0  0  0  0  0  0  0  0
    1.5112    1.3102   -3.8674 H   0  0  0  0  0  0  0  0  0  0  0  0
    0.5985    1.4615   -2.3317 H   0  0  0  0  0  0  0  0  0  0  0  0
    4.0944    1.6203   -3.8466 H   0  0  0  0  0  0  0  0  0  0  0  0
    3.8229    3.2778   -3.2430 H   0  0  0  0  0  0  0  0  0  0  0  0
    4.8985    2.1488   -2.3339 H   0  0  0  0  0  0  0  0  0  0  0  0
  1  2  1  0
  2  3  1  0
  2  4  1  0
  4  5  1  0
  5  6  1  0
  6  7  2  0
  6  8  1  0
  8  9  1  0
  9 10  1  0
 10 11  1  0
 11 12  1  0
 12 13  1  0
 13 14  1  0
 14 15  2  0
 15 16  1  0
 16 17  2  0
 17 18  1  0
 18 19  2  0
 12 20  1  0
 20 21  1  0
 21 22  2  0
 21 23  1  0
 23 24  1  0
 24 25  1  0
 25 26  1  0
 25 27  2  0
 23 28  1  0
 28 29  1  0
 29 30  2  0
 29 31  1  0
 31 32  2  0
 32 33  1  0
 33 34  2  0
 34 35  1  0
 35 36  2  0
 36 37  1  0
 37 38  2  0
 38 39  1  0
 39 40  2  0
  4 41  1  0
 41 42  1  0
 41 43  1  0
 11  9  1  0
 19 14  1  0
 39 34  1  0
 40 31  1  0
  1 44  1  0
  1 45  1  0
  1 46  1  0
  2 47  1  0
  3 48  1  0
  3 49  1  0
  3 50  1  0
  4 51  1  0
  5 52  1  0
  8 53  1  0
  8 54  1  0
  9 55  1  6
 11 56  1  6
 12 57  1  6
 13 58  1  0
 13 59  1  0
 15 60  1  0
 16 61  1  0
 17 62  1  0
 18 63  1  0
 19 64  1  0
 20 65  1  0
 23 66  1  0
 24 67  1  0
 24 68  1  0
 26 69  1  0
 26 70  1  0
 28 71  1  0
 32 72  1  0
 33 73  1  0
 35 74  1  0
 36 75  1  0
 37 76  1  0
 38 77  1  0
 41 78  1  0
 42 79  1  0
 42 80  1  0
 42 81  1  0
 43 82  1  0
 43 83  1  0
 43 84  1  0
M  END
$$$$
