
     RDKit          3D

 79 82  0  0  0  0  0  0  0  0999 V2000
   -1.2118    1.7403    1.8018 C   0  0  0  0  0  0  0  0  0  0  0  0
   -1.7562    1.6716    0.3568 C   0  0  0  0  0  0  0  0  0  0  0  0
   -0.5455    1.6813   -0.5960 C   0  0  0  0  0  0  0  0  0  0  0  0
   -2.7506    0.4607    0.1363 C   0  0  0  0  0  0  0  0  0  0  0  0
   -4.0976    0.7606    0.8719 C   0  0  0  0  0  0  0  0  0  0  0  0
   -4.9462   -0.4945    1.1575 C   0  0  0  0  0  0  0  0  0  0  0  0
   -6.2790   -0.1076    1.7411 C   0  0  0  0  0  0  0  0  0  0  0  0
   -7.3689    0.1625    0.8977 C   0  0  0  0  0  0  0  0  0  0  0  0
   -8.5974    0.5553    1.4375 C   0  0  0  0  0  0  0  0  0  0  0  0
   -8.7453    0.6922    2.8245 C   0  0  0  0  0  0  0  0  0  0  0  0
   -9.9644    1.0828    3.3737 O   0  0  0  0  0  0  0  0  0  0  0  0
   -7.6582    0.4374    3.6668 C   0  0  0  0  0  0  0  0  0  0  0  0
   -6.4286    0.0445    3.1294 C   0  0  0  0  0  0  0  0  0  0  0  0
   -3.0761    0.2452   -1.3770 C   0  0  0  0  0  0  0  0  0  0  0  0
   -2.0770   -0.6304   -2.0759 C   0  0  0  0  0  0  0  0  0  0  0  0
   -2.0282   -0.6131   -3.3349 O   0  0  0  0  0  0  0  0  0  0  0  0
   -1.2321   -1.5715   -1.3187 C   0  0  0  0  0  0  0  0  0  0  0  0
   -0.1386   -2.6999   -2.2219 S   0  0  0  0  0  0  0  0  0  0  0  0
    1.3565   -1.6926   -2.0553 C   0  0  0  0  0  0  0  0  0  0  0  0
    1.3222   -0.4315   -2.6677 C   0  0  0  0  0  0  0  0  0  0  0  0
    2.3191    0.5186   -2.4395 C   0  0  0  0  0  0  0  0  0  0  0  0
    2.2027    1.8865   -3.0575 C   0  0  0  0  0  0  0  0  0  0  0  0
    3.3955    0.1935   -1.6023 C   0  0  0  0  0  0  0  0  0  0  0  0
    4.4239    1.1622   -1.3326 N   0  0  0  0  0  0  0  0  0  0  0  0
    4.9215    1.4259   -0.0080 C   0  0  0  0  0  0  0  0  0  0  0  0
    4.4674    0.7760    0.9737 O   0  0  0  0  0  0  0  0  0  0  0  0
    5.9608    2.4554    0.2309 C   0  0  0  0  0  0  0  0  0  0  0  0
    6.8240    2.3423    1.3336 C   0  0  0  0  0  0  0  0  0  0  0  0
    7.8007    3.3122    1.5648 C   0  0  0  0  0  0  0  0  0  0  0  0
    7.9039    4.3986    0.6965 C   0  0  0  0  0  0  0  0  0  0  0  0
    7.0541    4.5090   -0.3579 N   0  0  0  0  0  0  0  0  0  0  0  0
    6.0963    3.5764   -0.6083 C   0  0  0  0  0  0  0  0  0  0  0  0
    3.5074   -1.1088   -1.0950 C   0  0  0  0  0  0  0  0  0  0  0  0
    2.5323   -2.1091   -1.3510 C   0  0  0  0  0  0  0  0  0  0  0  0
    2.8305   -3.6018   -0.9972 C   0  0  0  0  0  0  0  0  0  0  0  0
    1.8486   -4.1388    0.0634 C   0  0  0  0  0  0  0  0  0  0  0  0
    2.7560   -4.4720   -2.2744 C   0  0  0  0  0  0  0  0  0  0  0  0
    4.2570   -3.8129   -0.4178 C   0  0  0  0  0  0  0  0  0  0  0  0
   -1.3475   -1.6214    0.0138 C   0  0  0  0  0  0  0  0  0  0  0  0
   -0.6566   -2.5772    0.7445 O   0  0  0  0  0  0  0  0  0  0  0  0
   -2.1829   -0.7307    0.7009 O   0  0  0  0  0  0  0  0  0  0  0  0
   -2.0112    1.8929    2.5504 H   0  0  0  0  0  0  0  0  0  0  0  0
   -0.5187    2.6022    1.9096 H   0  0  0  0  0  0  0  0  0  0  0  0
   -0.6522    0.8156    2.0580 H   0  0  0  0  0  0  0  0  0  0  0  0
   -2.3145    2.6155    0.1659 H   0  0  0  0  0  0  0  0  0  0  0  0
    0.0939    2.5678   -0.3960 H   0  0  0  0  0  0  0  0  0  0  0  0
    0.0753    0.7751   -0.4472 H   0  0  0  0  0  0  0  0  0  0  0  0
   -0.8574    1.7583   -1.6565 H   0  0  0  0  0  0  0  0  0  0  0  0
   -3.9249    1.2501    1.8484 H   0  0  0  0  0  0  0  0  0  0  0  0
   -4.6929    1.4832    0.2691 H   0  0  0  0  0  0  0  0  0  0  0  0
   -4.4088   -1.1535    1.8740 H   0  0  0  0  0  0  0  0  0  0  0  0
   -5.1097   -1.0905    0.2366 H   0  0  0  0  0  0  0  0  0  0  0  0
   -7.2659    0.0706   -0.1766 H   0  0  0  0  0  0  0  0  0  0  0  0
   -9.4317    0.7564    0.7776 H   0  0  0  0  0  0  0  0  0  0  0  0
  -10.7703    1.2756    2.7905 H   0  0  0  0  0  0  0  0  0  0  0  0
   -7.7653    0.5475    4.7384 H   0  0  0  0  0  0  0  0  0  0  0  0
   -5.5934   -0.1394    3.7939 H   0  0  0  0  0  0  0  0  0  0  0  0
   -4.0613   -0.2439   -1.5144 H   0  0  0  0  0  0  0  0  0  0  0  0
   -3.1497    1.2258   -1.8959 H   0  0  0  0  0  0  0  0  0  0  0  0
    0.4786   -0.1659   -3.2883 H   0  0  0  0  0  0  0  0  0  0  0  0
    1.2126    2.0368   -3.5384 H   0  0  0  0  0  0  0  0  0  0  0  0
    2.9899    2.0150   -3.8294 H   0  0  0  0  0  0  0  0  0  0  0  0
    2.3220    2.6670   -2.2764 H   0  0  0  0  0  0  0  0  0  0  0  0
    4.7910    1.7140   -2.1382 H   0  0  0  0  0  0  0  0  0  0  0  0
    6.7511    1.4983    2.0086 H   0  0  0  0  0  0  0  0  0  0  0  0
    8.4716    3.2221    2.4093 H   0  0  0  0  0  0  0  0  0  0  0  0
    8.6555    5.1584    0.8640 H   0  0  0  0  0  0  0  0  0  0  0  0
    5.4294    3.7335   -1.4441 H   0  0  0  0  0  0  0  0  0  0  0  0
    4.4011   -1.3236   -0.5329 H   0  0  0  0  0  0  0  0  0  0  0  0
    2.1831   -5.1256    0.4514 H   0  0  0  0  0  0  0  0  0  0  0  0
    1.7914   -3.4369    0.9224 H   0  0  0  0  0  0  0  0  0  0  0  0
    0.8386   -4.3106   -0.3481 H   0  0  0  0  0  0  0  0  0  0  0  0
    1.7345   -4.5325   -2.6908 H   0  0  0  0  0  0  0  0  0  0  0  0
    3.4271   -4.0613   -3.0596 H   0  0  0  0  0  0  0  0  0  0  0  0
    3.0696   -5.5172   -2.0612 H   0  0  0  0  0  0  0  0  0  0  0  0
    4.3747   -3.2889    0.5556 H   0  0  0  0  0  0  0  0  0  0  0  0
    4.4575   -4.8902   -0.2278 H   0  0  0  0  0  0  0  0  0  0  0  0
    5.0338   -3.4592   -1.1303 H   0  0  0  0  0  0  0  0  0  0  0  0
   -0.7458   -2.6197    1.7522 H   0  0  0  0  0  0  0  0  0  0  0  0
  1  2  1  0
  2  3  1  0
  2  4  1  0
  4  5  1  0
  5  6  1  0
  6  7  1  0
  7  8  2  0
  8  9  1  0
  9 10  2  0
 10 11  1  0
 10 12  1  0
 12 13  2  0
  4 14  1  0
 14 15  1  0
 15 16  2  0
 15 17  1  0
 17 18  1  0
 18 19  1  0
 19 20  2  0
 20 21  1  0
 21 22  1  0
 21 23  2  0
 23 24  1  0
 24 25  1  0
 25 26  2  0
 25 27  1  0
 27 28  2  0
 28 29  1  0
 29 30  2  0
 30 31  1  0
 31 32  2  0
 23 33  1  0
 33 34  2  0
 34 35  1  0
 35 36  1  0
 35 37  1  0
 35 38  1  0
 17 39  2  0
 39 40  1  0
 39 41  1  0
 13  7  1  0
 32 27  1  0
 34 19  1  0
 41  4  1  0
  1 42  1  0
  1 43  1  0
  1 44  1  0
  2 45  1  0
  3 46  1  0
  3 47  1  0
  3 48  1  0
  5 49  1  0
  5 50  1  0
  6 51  1  0
  6 52  1  0
  8 53  1  0
  9 54  1  0
 11 55  1  0
 12 56  1  0
 13 57  1  0
 14 58  1  0
 14 59  1  0
 20 60  1  0
 22 61  1  0
 22 62  1  0
 22 63  1  0
 24 64  1  0
 28 65  1  0
 29 66  1  0
 30 67  1  0
 32 68  1  0
 33 69  1  0
 36 70  1  0
 36 71  1  0
 36 72  1  0
 37 73  1  0
 37 74  1  0
 37 75  1  0
 38 76  1  0
 38 77  1  0
 38 78  1  0
 40 79  1  0
M  END
$$$$
