
     RDKit          3D

 71 74  0  0  0  0  0  0  0  0999 V2000
    1.0909   -0.9274    1.0848 C   0  0  0  0  0  0  0  0  0  0  0  0
    0.4202    0.2491    0.3581 C   0  0  0  0  0  0  0  0  0  0  0  0
    0.2688    1.4297    1.3380 C   0  0  0  0  0  0  0  0  0  0  0  0
    1.1035    0.6652   -1.0092 C   0  0  0  0  0  0  0  0  0  0  0  0
    2.6369    0.9413   -0.8630 C   0  0  0  0  0  0  0  0  0  0  0  0
    3.5750   -0.2656   -1.0714 C   0  0  0  0  0  0  0  0  0  0  0  0
    4.9729    0.0887   -0.6769 C   0  0  0  0  0  0  0  0  0  0  0  0
    5.4454   -0.0569    0.5857 N   0  0  0  0  0  0  0  0  0  0  0  0
    6.7195    0.4008    0.6821 C   0  0  0  0  0  0  0  0  0  0  0  0
    7.4783    0.3815    1.8536 C   0  0  0  0  0  0  0  0  0  0  0  0
    8.7870    0.8938    1.8187 C   0  0  0  0  0  0  0  0  0  0  0  0
    9.3174    1.4173    0.6224 C   0  0  0  0  0  0  0  0  0  0  0  0
    8.5440    1.4334   -0.5493 C   0  0  0  0  0  0  0  0  0  0  0  0
    7.2517    0.9184   -0.4885 C   0  0  0  0  0  0  0  0  0  0  0  0
    6.1050    0.8136   -1.7090 S   0  0  0  0  0  0  0  0  0  0  0  0
    0.8229   -0.3893   -2.1197 C   0  0  0  0  0  0  0  0  0  0  0  0
   -0.6213   -0.3697   -2.5365 C   0  0  0  0  0  0  0  0  0  0  0  0
   -1.1145   -1.3793   -3.1020 O   0  0  0  0  0  0  0  0  0  0  0  0
   -1.4147    0.8650   -2.3876 C   0  0  0  0  0  0  0  0  0  0  0  0
   -3.1836    0.8739   -2.7411 S   0  0  0  0  0  0  0  0  0  0  0  0
   -3.6302    0.4151   -1.0472 C   0  0  0  0  0  0  0  0  0  0  0  0
   -3.5213    1.4563   -0.1131 C   0  0  0  0  0  0  0  0  0  0  0  0
   -3.5459    1.2188    1.2631 C   0  0  0  0  0  0  0  0  0  0  0  0
   -3.3590    2.3747    2.2125 C   0  0  0  0  0  0  0  0  0  0  0  0
   -3.7356   -0.0949    1.7275 C   0  0  0  0  0  0  0  0  0  0  0  0
   -3.6919   -0.4299    3.1985 C   0  0  0  0  0  0  0  0  0  0  0  0
   -2.3576   -0.5342    3.6095 O   0  0  0  0  0  0  0  0  0  0  0  0
   -3.9324   -1.1284    0.8014 C   0  0  0  0  0  0  0  0  0  0  0  0
   -3.9600   -0.9061   -0.5982 C   0  0  0  0  0  0  0  0  0  0  0  0
   -4.4225   -2.1031   -1.4837 C   0  0  0  0  0  0  0  0  0  0  0  0
   -4.5885   -1.7940   -2.9883 C   0  0  0  0  0  0  0  0  0  0  0  0
   -5.8152   -2.5832   -0.9959 C   0  0  0  0  0  0  0  0  0  0  0  0
   -3.4188   -3.2703   -1.3450 C   0  0  0  0  0  0  0  0  0  0  0  0
   -0.8002    1.9716   -1.9493 C   0  0  0  0  0  0  0  0  0  0  0  0
   -1.4501    3.2011   -1.9743 O   0  0  0  0  0  0  0  0  0  0  0  0
    0.5078    1.8982   -1.4473 O   0  0  0  0  0  0  0  0  0  0  0  0
    2.0947   -0.6421    1.4631 H   0  0  0  0  0  0  0  0  0  0  0  0
    1.1713   -1.8150    0.4268 H   0  0  0  0  0  0  0  0  0  0  0  0
    0.4743   -1.2290    1.9588 H   0  0  0  0  0  0  0  0  0  0  0  0
   -0.6177   -0.0837    0.1374 H   0  0  0  0  0  0  0  0  0  0  0  0
    1.2539    1.8265    1.6561 H   0  0  0  0  0  0  0  0  0  0  0  0
   -0.2777    1.1000    2.2472 H   0  0  0  0  0  0  0  0  0  0  0  0
   -0.3235    2.2515    0.8851 H   0  0  0  0  0  0  0  0  0  0  0  0
    2.8451    1.4010    0.1250 H   0  0  0  0  0  0  0  0  0  0  0  0
    2.9290    1.7058   -1.6175 H   0  0  0  0  0  0  0  0  0  0  0  0
    3.2548   -1.1434   -0.4803 H   0  0  0  0  0  0  0  0  0  0  0  0
    3.5789   -0.5655   -2.1405 H   0  0  0  0  0  0  0  0  0  0  0  0
    7.0690   -0.0193    2.7721 H   0  0  0  0  0  0  0  0  0  0  0  0
    9.3908    0.8868    2.7169 H   0  0  0  0  0  0  0  0  0  0  0  0
   10.3257    1.8101    0.6070 H   0  0  0  0  0  0  0  0  0  0  0  0
    8.9416    1.8353   -1.4722 H   0  0  0  0  0  0  0  0  0  0  0  0
    1.1029   -1.4119   -1.7943 H   0  0  0  0  0  0  0  0  0  0  0  0
    1.4216   -0.1430   -3.0231 H   0  0  0  0  0  0  0  0  0  0  0  0
   -3.3556    2.4649   -0.4669 H   0  0  0  0  0  0  0  0  0  0  0  0
   -4.3109    2.5759    2.7467 H   0  0  0  0  0  0  0  0  0  0  0  0
   -2.5636    2.1421    2.9506 H   0  0  0  0  0  0  0  0  0  0  0  0
   -3.0573    3.3008    1.6783 H   0  0  0  0  0  0  0  0  0  0  0  0
   -4.2152    0.3528    3.7903 H   0  0  0  0  0  0  0  0  0  0  0  0
   -4.2186   -1.3903    3.3975 H   0  0  0  0  0  0  0  0  0  0  0  0
   -2.3828   -0.7315    4.5818 H   0  0  0  0  0  0  0  0  0  0  0  0
   -4.0878   -2.1239    1.1925 H   0  0  0  0  0  0  0  0  0  0  0  0
   -5.2546   -0.9184   -3.1424 H   0  0  0  0  0  0  0  0  0  0  0  0
   -3.6114   -1.6420   -3.4844 H   0  0  0  0  0  0  0  0  0  0  0  0
   -5.0544   -2.6526   -3.5195 H   0  0  0  0  0  0  0  0  0  0  0  0
   -6.5447   -1.7450   -1.0298 H   0  0  0  0  0  0  0  0  0  0  0  0
   -5.7891   -2.9784    0.0398 H   0  0  0  0  0  0  0  0  0  0  0  0
   -6.2022   -3.4073   -1.6342 H   0  0  0  0  0  0  0  0  0  0  0  0
   -2.3901   -2.9313   -1.5787 H   0  0  0  0  0  0  0  0  0  0  0  0
   -3.6798   -4.1020   -2.0351 H   0  0  0  0  0  0  0  0  0  0  0  0
   -3.4121   -3.6876   -0.3169 H   0  0  0  0  0  0  0  0  0  0  0  0
   -0.9883    4.0342   -1.6308 H   0  0  0  0  0  0  0  0  0  0  0  0
  1  2  1  0
  2  3  1  0
  2  4  1  0
  4  5  1  0
  5  6  1  0
  6  7  1  0
  7  8  2  0
  8  9  1  0
  9 10  2  0
 10 11  1  0
 11 12  2  0
 12 13  1  0
 13 14  2  0
 14 15  1  0
  4 16  1  0
 16 17  1  0
 17 18  2  0
 17 19  1  0
 19 20  1  0
 20 21  1  0
 21 22  2  0
 22 23  1  0
 23 24  1  0
 23 25  2  0
 25 26  1  0
 26 27  1  0
 25 28  1  0
 28 29  2  0
 29 30  1  0
 30 31  1  0
 30 32  1  0
 30 33  1  0
 19 34  2  0
 34 35  1  0
 34 36  1  0
 14  9  1  0
 15  7  1  0
 29 21  1  0
 36  4  1  0
  1 37  1  0
  1 38  1  0
  1 39  1  0
  2 40  1  0
  3 41  1  0
  3 42  1  0
  3 43  1  0
  5 44  1  0
  5 45  1  0
  6 46  1  0
  6 47  1  0
 10 48  1  0
 11 49  1  0
 12 50  1  0
 13 51  1  0
 16 52  1  0
 16 53  1  0
 22 54  1  0
 24 55  1  0
 24 56  1  0
 24 57  1  0
 26 58  1  0
 26 59  1  0
 27 60  1  0
 28 61  1  0
 31 62  1  0
 31 63  1  0
 31 64  1  0
 32 65  1  0
 32 66  1  0
 32 67  1  0
 33 68  1  0
 33 69  1  0
 33 70  1  0
 35 71  1  0
M  END
$$$$
