
     RDKit          3D

 80 83  0  0  0  0  0  0  0  0999 V2000
    0.8973    6.1980    0.8504 C   0  0  0  0  0  0  0  0  0  0  0  0
    1.9806    5.3340    1.1794 O   0  0  0  0  0  0  0  0  0  0  0  0
    2.2020    4.0793    0.5920 C   0  0  0  0  0  0  0  0  0  0  0  0
    3.3313    3.3513    0.9836 C   0  0  0  0  0  0  0  0  0  0  0  0
    3.6077    2.1061    0.4121 C   0  0  0  0  0  0  0  0  0  0  0  0
    2.7488    1.5654   -0.5539 C   0  0  0  0  0  0  0  0  0  0  0  0
    3.1183    0.0046   -1.2963 S   0  0  0  0  0  0  0  0  0  0  0  0
    2.4744   -0.0618   -2.6530 O   0  0  0  0  0  0  0  0  0  0  0  0
    4.6055   -0.1058   -1.4885 O   0  0  0  0  0  0  0  0  0  0  0  0
    2.5600   -1.3293   -0.3057 N   0  0  0  0  0  0  0  0  0  0  0  0
    3.1900   -1.2634    1.0293 C   0  0  0  0  0  0  0  0  0  0  0  0
    3.2830   -2.6669    1.6651 C   0  0  0  0  0  0  0  0  0  0  0  0
    4.2199   -3.5764    0.8582 C   0  0  0  0  0  0  0  0  0  0  0  0
    3.7690   -2.5623    3.1154 C   0  0  0  0  0  0  0  0  0  0  0  0
    1.0821   -1.3313   -0.2163 C   0  0  0  0  0  0  0  0  0  0  0  0
    0.4732   -2.2476   -1.2976 C   0  0  1  0  0  0  0  0  0  0  0  0
    1.0138   -3.5365   -1.1512 O   0  0  0  0  0  0  0  0  0  0  0  0
   -1.0733   -2.3201   -1.1805 C   0  0  2  0  0  0  0  0  0  0  0  0
   -1.7130   -3.1184   -2.3389 C   0  0  0  0  0  0  0  0  0  0  0  0
   -1.4394   -4.5996   -2.2567 C   0  0  0  0  0  0  0  0  0  0  0  0
   -2.0714   -5.3821   -1.2754 C   0  0  0  0  0  0  0  0  0  0  0  0
   -1.8086   -6.7528   -1.1898 C   0  0  0  0  0  0  0  0  0  0  0  0
   -0.9157   -7.3520   -2.0823 C   0  0  0  0  0  0  0  0  0  0  0  0
   -0.2850   -6.5817   -3.0630 C   0  0  0  0  0  0  0  0  0  0  0  0
   -0.5453   -5.2108   -3.1529 C   0  0  0  0  0  0  0  0  0  0  0  0
   -1.6375   -0.9655   -1.1910 N   0  0  0  0  0  0  0  0  0  0  0  0
   -2.0721   -0.2936   -0.0032 C   0  0  0  0  0  0  0  0  0  0  0  0
   -2.2797   -0.9415    1.0594 O   0  0  0  0  0  0  0  0  0  0  0  0
   -2.2316    1.0939   -0.0294 O   0  0  0  0  0  0  0  0  0  0  0  0
   -2.5519    1.8639    1.1301 C   0  0  2  0  0  0  0  0  0  0  0  0
   -4.0259    1.7412    1.5250 C   0  0  0  0  0  0  0  0  0  0  0  0
   -4.5145    3.0115    1.9135 O   0  0  0  0  0  0  0  0  0  0  0  0
   -3.4062    3.8821    1.9066 C   0  0  2  0  0  0  0  0  0  0  0  0
   -3.7929    5.2335    1.7030 O   0  0  0  0  0  0  0  0  0  0  0  0
   -4.2673    5.4541    0.3916 C   0  0  0  0  0  0  0  0  0  0  0  0
   -3.1545    5.2163   -0.6246 C   0  0  0  0  0  0  0  0  0  0  0  0
   -2.7388    3.7550   -0.5560 C   0  0  0  0  0  0  0  0  0  0  0  0
   -2.3893    3.3484    0.8957 C   0  0  2  0  0  0  0  0  0  0  0  0
    1.6087    2.2845   -0.9409 C   0  0  0  0  0  0  0  0  0  0  0  0
    1.3374    3.5347   -0.3762 C   0  0  0  0  0  0  0  0  0  0  0  0
    0.9873    7.1326    1.4407 H   0  0  0  0  0  0  0  0  0  0  0  0
   -0.0684    5.7139    1.1017 H   0  0  0  0  0  0  0  0  0  0  0  0
    0.9267    6.4554   -0.2294 H   0  0  0  0  0  0  0  0  0  0  0  0
    4.0048    3.7586    1.7270 H   0  0  0  0  0  0  0  0  0  0  0  0
    4.4957    1.5693    0.7191 H   0  0  0  0  0  0  0  0  0  0  0  0
    4.2253   -0.8626    0.9591 H   0  0  0  0  0  0  0  0  0  0  0  0
    2.6239   -0.5705    1.6937 H   0  0  0  0  0  0  0  0  0  0  0  0
    2.2766   -3.1373    1.6818 H   0  0  0  0  0  0  0  0  0  0  0  0
    3.8507   -3.6888   -0.1824 H   0  0  0  0  0  0  0  0  0  0  0  0
    5.2477   -3.1549    0.8288 H   0  0  0  0  0  0  0  0  0  0  0  0
    4.2606   -4.5873    1.3171 H   0  0  0  0  0  0  0  0  0  0  0  0
    4.7792   -2.1010    3.1590 H   0  0  0  0  0  0  0  0  0  0  0  0
    3.8146   -3.5709    3.5789 H   0  0  0  0  0  0  0  0  0  0  0  0
    3.0654   -1.9421    3.7109 H   0  0  0  0  0  0  0  0  0  0  0  0
    0.7351   -1.7066    0.7722 H   0  0  0  0  0  0  0  0  0  0  0  0
    0.6808   -0.3011   -0.3067 H   0  0  0  0  0  0  0  0  0  0  0  0
    0.7195   -1.8368   -2.3036 H   0  0  0  0  0  0  0  0  0  0  0  0
    1.8327   -3.5755   -1.7110 H   0  0  0  0  0  0  0  0  0  0  0  0
   -1.3326   -2.8268   -0.2245 H   0  0  0  0  0  0  0  0  0  0  0  0
   -2.8154   -2.9723   -2.3110 H   0  0  0  0  0  0  0  0  0  0  0  0
   -1.3670   -2.7088   -3.3136 H   0  0  0  0  0  0  0  0  0  0  0  0
   -2.7652   -4.9299   -0.5775 H   0  0  0  0  0  0  0  0  0  0  0  0
   -2.2969   -7.3504   -0.4309 H   0  0  0  0  0  0  0  0  0  0  0  0
   -0.7126   -8.4129   -2.0140 H   0  0  0  0  0  0  0  0  0  0  0  0
    0.4073   -7.0467   -3.7530 H   0  0  0  0  0  0  0  0  0  0  0  0
   -0.0438   -4.6257   -3.9137 H   0  0  0  0  0  0  0  0  0  0  0  0
   -1.5448   -0.3968   -2.0633 H   0  0  0  0  0  0  0  0  0  0  0  0
   -1.9005    1.5594    1.9820 H   0  0  0  0  0  0  0  0  0  0  0  0
   -4.6289    1.3772    0.6652 H   0  0  0  0  0  0  0  0  0  0  0  0
   -4.1420    1.0235    2.3650 H   0  0  0  0  0  0  0  0  0  0  0  0
   -2.9383    3.8366    2.9169 H   0  0  0  0  0  0  0  0  0  0  0  0
   -5.1550    4.8184    0.1717 H   0  0  0  0  0  0  0  0  0  0  0  0
   -4.5958    6.5117    0.3130 H   0  0  0  0  0  0  0  0  0  0  0  0
   -2.2854    5.8709   -0.3948 H   0  0  0  0  0  0  0  0  0  0  0  0
   -3.5196    5.4548   -1.6468 H   0  0  0  0  0  0  0  0  0  0  0  0
   -3.5791    3.1386   -0.9478 H   0  0  0  0  0  0  0  0  0  0  0  0
   -1.8627    3.5852   -1.2171 H   0  0  0  0  0  0  0  0  0  0  0  0
   -1.3617    3.6854    1.1515 H   0  0  0  0  0  0  0  0  0  0  0  0
    0.9322    1.8824   -1.6844 H   0  0  0  0  0  0  0  0  0  0  0  0
    0.4604    4.0737   -0.7036 H   0  0  0  0  0  0  0  0  0  0  0  0
  1  2  1  0
  2  3  1  0
  3  4  2  0
  4  5  1  0
  5  6  2  0
  6  7  1  0
  7  8  2  0
  7  9  2  0
  7 10  1  0
 10 11  1  0
 11 12  1  0
 12 13  1  0
 12 14  1  0
 10 15  1  0
 15 16  1  0
 16 17  1  0
 16 18  1  0
 18 19  1  0
 19 20  1  0
 20 21  2  0
 21 22  1  0
 22 23  2  0
 23 24  1  0
 24 25  2  0
 18 26  1  0
 26 27  1  0
 27 28  2  0
 27 29  1  0
 29 30  1  0
 30 31  1  0
 31 32  1  0
 32 33  1  0
 33 34  1  0
 34 35  1  0
 35 36  1  0
 36 37  1  0
 37 38  1  0
  6 39  1  0
 39 40  2  0
 25 20  1  0
 38 30  1  0
 38 33  1  0
 40  3  1  0
  1 41  1  0
  1 42  1  0
  1 43  1  0
  4 44  1  0
  5 45  1  0
 11 46  1  0
 11 47  1  0
 12 48  1  0
 13 49  1  0
 13 50  1  0
 13 51  1  0
 14 52  1  0
 14 53  1  0
 14 54  1  0
 15 55  1  0
 15 56  1  0
 16 57  1  6
 17 58  1  0
 18 59  1  1
 19 60  1  0
 19 61  1  0
 21 62  1  0
 22 63  1  0
 23 64  1  0
 24 65  1  0
 25 66  1  0
 26 67  1  0
 30 68  1  1
 31 69  1  0
 31 70  1  0
 33 71  1  1
 35 72  1  0
 35 73  1  0
 36 74  1  0
 36 75  1  0
 37 76  1  0
 37 77  1  0
 38 78  1  1
 39 79  1  0
 40 80  1  0
M  END
$$$$
