
     RDKit          3D

 63 66  0  0  0  0  0  0  0  0999 V2000
   -3.4787   -3.4263   -2.1198 C   0  0  0  0  0  0  0  0  0  0  0  0
   -1.9623   -3.2337   -2.1694 C   0  0  0  0  0  0  0  0  0  0  0  0
   -1.3662   -2.8702   -0.7862 C   0  0  0  0  0  0  0  0  0  0  0  0
    0.1466   -2.7299   -0.8239 C   0  0  0  0  0  0  0  0  0  0  0  0
    0.9322   -3.4287    0.1106 C   0  0  0  0  0  0  0  0  0  0  0  0
    2.3158   -3.2499    0.1498 C   0  0  0  0  0  0  0  0  0  0  0  0
    2.9339   -2.3578   -0.7265 C   0  0  0  0  0  0  0  0  0  0  0  0
    2.1691   -1.6361   -1.6574 C   0  0  0  0  0  0  0  0  0  0  0  0
    2.7743   -0.6790   -2.5414 N   0  0  0  0  0  0  0  0  0  0  0  0
    4.2044    0.2082   -2.1207 S   0  0  0  0  0  0  0  0  0  0  0  0
    4.3157    1.4210   -3.0005 O   0  0  0  0  0  0  0  0  0  0  0  0
    5.4076   -0.6670   -2.3358 O   0  0  0  0  0  0  0  0  0  0  0  0
    4.1043    0.7336   -0.4421 C   0  0  0  0  0  0  0  0  0  0  0  0
    5.2123    0.6179    0.4091 C   0  0  0  0  0  0  0  0  0  0  0  0
    5.1153    1.0142    1.7467 C   0  0  0  0  0  0  0  0  0  0  0  0
    3.9102    1.5292    2.2411 C   0  0  0  0  0  0  0  0  0  0  0  0
    3.8085    1.9332    3.6189 C   0  0  0  0  0  0  0  0  0  0  0  0
    3.7263    2.2580    4.7265 N   0  0  0  0  0  0  0  0  0  0  0  0
    2.8037    1.6497    1.3916 C   0  0  0  0  0  0  0  0  0  0  0  0
    2.9012    1.2557    0.0536 C   0  0  0  0  0  0  0  0  0  0  0  0
    0.7828   -1.8410   -1.7119 C   0  0  0  0  0  0  0  0  0  0  0  0
   -1.9863   -1.6616   -0.0690 C   0  0  0  0  0  0  0  0  0  0  0  0
   -2.2856   -0.4417   -0.7204 C   0  0  0  0  0  0  0  0  0  0  0  0
   -2.0358   -0.3199   -2.0888 O   0  0  0  0  0  0  0  0  0  0  0  0
   -2.8078    0.6438    0.0253 C   0  0  0  0  0  0  0  0  0  0  0  0
   -3.0925    1.9806   -0.6238 C   0  0  0  0  0  0  0  0  0  0  0  0
   -1.8526    2.9083   -0.6433 C   0  0  0  0  0  0  0  0  0  0  0  0
   -0.7945    2.6424    0.4561 C   0  0  0  0  0  0  0  0  0  0  0  0
   -1.1921    2.9880    1.9124 C   0  0  0  0  0  0  0  0  0  0  0  0
   -2.6936    2.9889    2.2512 C   0  0  0  0  0  0  0  0  0  0  0  0
   -3.3827    1.6060    2.3540 C   0  0  0  0  0  0  0  0  0  0  0  0
   -2.8960    0.5076    1.4305 C   0  0  0  0  0  0  0  0  0  0  0  0
   -2.5752   -0.6464    2.0002 O   0  0  0  0  0  0  0  0  0  0  0  0
   -2.1430   -1.7043    1.3320 C   0  0  0  0  0  0  0  0  0  0  0  0
   -1.8587   -2.7468    1.9803 O   0  0  0  0  0  0  0  0  0  0  0  0
   -3.7476   -4.1903   -1.3598 H   0  0  0  0  0  0  0  0  0  0  0  0
   -3.9882   -2.4712   -1.8752 H   0  0  0  0  0  0  0  0  0  0  0  0
   -3.8410   -3.7709   -3.1112 H   0  0  0  0  0  0  0  0  0  0  0  0
   -1.5097   -4.1943   -2.5009 H   0  0  0  0  0  0  0  0  0  0  0  0
   -1.7105   -2.4958   -2.9544 H   0  0  0  0  0  0  0  0  0  0  0  0
   -1.5979   -3.7728   -0.1773 H   0  0  0  0  0  0  0  0  0  0  0  0
    0.4738   -4.1078    0.8186 H   0  0  0  0  0  0  0  0  0  0  0  0
    2.9101   -3.7969    0.8704 H   0  0  0  0  0  0  0  0  0  0  0  0
    4.0069   -2.2364   -0.6744 H   0  0  0  0  0  0  0  0  0  0  0  0
    2.2392   -0.3492   -3.3757 H   0  0  0  0  0  0  0  0  0  0  0  0
    6.1486    0.2185    0.0416 H   0  0  0  0  0  0  0  0  0  0  0  0
    5.9779    0.9171    2.3950 H   0  0  0  0  0  0  0  0  0  0  0  0
    1.8680    2.0461    1.7649 H   0  0  0  0  0  0  0  0  0  0  0  0
    2.0384    1.3500   -0.5937 H   0  0  0  0  0  0  0  0  0  0  0  0
    0.2073   -1.2810   -2.4324 H   0  0  0  0  0  0  0  0  0  0  0  0
   -2.0854    0.5446   -2.6082 H   0  0  0  0  0  0  0  0  0  0  0  0
   -3.4844    1.8525   -1.6528 H   0  0  0  0  0  0  0  0  0  0  0  0
   -3.9446    2.4741   -0.1178 H   0  0  0  0  0  0  0  0  0  0  0  0
   -1.3464    2.7758   -1.6242 H   0  0  0  0  0  0  0  0  0  0  0  0
   -2.1795    3.9694   -0.5986 H   0  0  0  0  0  0  0  0  0  0  0  0
    0.1056    3.2442    0.2024 H   0  0  0  0  0  0  0  0  0  0  0  0
   -0.4468    1.5886    0.4051 H   0  0  0  0  0  0  0  0  0  0  0  0
   -0.8095    4.0094    2.1310 H   0  0  0  0  0  0  0  0  0  0  0  0
   -0.6629    2.3006    2.6078 H   0  0  0  0  0  0  0  0  0  0  0  0
   -2.8023    3.4750    3.2459 H   0  0  0  0  0  0  0  0  0  0  0  0
   -3.2424    3.6675    1.5692 H   0  0  0  0  0  0  0  0  0  0  0  0
   -3.2626    1.2496    3.4010 H   0  0  0  0  0  0  0  0  0  0  0  0
   -4.4749    1.7378    2.1995 H   0  0  0  0  0  0  0  0  0  0  0  0
  1  2  1  0
  2  3  1  0
  3  4  1  0
  4  5  2  0
  5  6  1  0
  6  7  2  0
  7  8  1  0
  8  9  1  0
  9 10  1  0
 10 11  2  0
 10 12  2  0
 10 13  1  0
 13 14  2  0
 14 15  1  0
 15 16  2  0
 16 17  1  0
 17 18  3  0
 16 19  1  0
 19 20  2  0
  8 21  2  0
  3 22  1  0
 22 23  2  0
 23 24  1  0
 23 25  1  0
 25 26  1  0
 26 27  1  0
 27 28  1  0
 28 29  1  0
 29 30  1  0
 30 31  1  0
 31 32  1  0
 32 33  1  0
 33 34  1  0
 34 35  2  0
 20 13  1  0
 21  4  1  0
 32 25  2  0
 34 22  1  0
  1 36  1  0
  1 37  1  0
  1 38  1  0
  2 39  1  0
  2 40  1  0
  3 41  1  0
  5 42  1  0
  6 43  1  0
  7 44  1  0
  9 45  1  0
 14 46  1  0
 15 47  1  0
 19 48  1  0
 20 49  1  0
 21 50  1  0
 24 51  1  0
 26 52  1  0
 26 53  1  0
 27 54  1  0
 27 55  1  0
 28 56  1  0
 28 57  1  0
 29 58  1  0
 29 59  1  0
 30 60  1  0
 30 61  1  0
 31 62  1  0
 31 63  1  0
M  END
$$$$
