
     RDKit          3D

 80 83  0  0  0  0  0  0  0  0999 V2000
   -8.2083    2.5413    1.5415 C   0  0  0  0  0  0  0  0  0  0  0  0
   -7.2374    3.1593    0.7032 O   0  0  0  0  0  0  0  0  0  0  0  0
   -6.1945    2.4745    0.0619 C   0  0  0  0  0  0  0  0  0  0  0  0
   -5.3052    3.2088   -0.7317 C   0  0  0  0  0  0  0  0  0  0  0  0
   -4.2481    2.5727   -1.3884 C   0  0  0  0  0  0  0  0  0  0  0  0
   -4.0717    1.1893   -1.2638 C   0  0  0  0  0  0  0  0  0  0  0  0
   -2.7062    0.4043   -2.0494 S   0  0  0  0  0  0  0  0  0  0  0  0
   -2.9981   -1.0627   -2.2101 O   0  0  0  0  0  0  0  0  0  0  0  0
   -2.5193    1.0090   -3.4134 O   0  0  0  0  0  0  0  0  0  0  0  0
   -1.2661    0.6446   -1.0838 N   0  0  0  0  0  0  0  0  0  0  0  0
   -1.3500   -0.0275    0.2314 C   0  0  0  0  0  0  0  0  0  0  0  0
   -1.7046    0.9937    1.3289 C   0  0  0  0  0  0  0  0  0  0  0  0
   -2.0205    0.2765    2.6464 C   0  0  0  0  0  0  0  0  0  0  0  0
   -0.5649    2.0002    1.5332 C   0  0  0  0  0  0  0  0  0  0  0  0
   -0.0222    0.3465   -1.8240 C   0  0  0  0  0  0  0  0  0  0  0  0
    0.1135   -1.1397   -2.2716 C   0  0  1  0  0  0  0  0  0  0  0  0
   -0.4827   -1.3214   -3.5334 O   0  0  0  0  0  0  0  0  0  0  0  0
    1.5973   -1.5973   -2.2972 C   0  0  2  0  0  0  0  0  0  0  0  0
    1.7862   -3.0150   -2.8842 C   0  0  0  0  0  0  0  0  0  0  0  0
    1.0995   -4.0940   -2.0804 C   0  0  0  0  0  0  0  0  0  0  0  0
    1.7573   -4.6969   -0.9942 C   0  0  0  0  0  0  0  0  0  0  0  0
    1.1119   -5.6774   -0.2347 C   0  0  0  0  0  0  0  0  0  0  0  0
   -0.1922   -6.0649   -0.5537 C   0  0  0  0  0  0  0  0  0  0  0  0
   -0.8523   -5.4741   -1.6342 C   0  0  0  0  0  0  0  0  0  0  0  0
   -0.2105   -4.4936   -2.3967 C   0  0  0  0  0  0  0  0  0  0  0  0
    2.1660   -1.5380   -0.9449 N   0  0  0  0  0  0  0  0  0  0  0  0
    3.4140   -0.9049   -0.6442 C   0  0  0  0  0  0  0  0  0  0  0  0
    4.1091   -0.3898   -1.5627 O   0  0  0  0  0  0  0  0  0  0  0  0
    3.8436   -0.8478    0.6852 O   0  0  0  0  0  0  0  0  0  0  0  0
    4.9962   -0.1125    1.0997 C   0  0  2  0  0  0  0  0  0  0  0  0
    5.3678   -0.4460    2.5252 C   0  0  0  0  0  0  0  0  0  0  0  0
    6.0518    0.6557    3.0702 O   0  0  0  0  0  0  0  0  0  0  0  0
    5.6152    1.8102    2.3839 C   0  0  2  0  0  0  0  0  0  0  0  0
    4.8999    2.6333    3.2935 O   0  0  0  0  0  0  0  0  0  0  0  0
    4.3358    3.7360    2.6105 C   0  0  0  0  0  0  0  0  0  0  0  0
    3.1904    3.2858    1.6861 C   0  0  0  0  0  0  0  0  0  0  0  0
    3.2966    1.7946    1.3456 C   0  0  0  0  0  0  0  0  0  0  0  0
    4.7726    1.3853    1.1600 C   0  0  2  0  0  0  0  0  0  0  0  0
   -4.9552    0.4484   -0.4675 C   0  0  0  0  0  0  0  0  0  0  0  0
   -6.0119    1.0840    0.1910 C   0  0  0  0  0  0  0  0  0  0  0  0
   -8.9107    3.3147    1.9139 H   0  0  0  0  0  0  0  0  0  0  0  0
   -8.7838    1.7855    0.9663 H   0  0  0  0  0  0  0  0  0  0  0  0
   -7.7120    2.0628    2.4121 H   0  0  0  0  0  0  0  0  0  0  0  0
   -5.4314    4.2791   -0.8353 H   0  0  0  0  0  0  0  0  0  0  0  0
   -3.5626    3.1599   -1.9862 H   0  0  0  0  0  0  0  0  0  0  0  0
   -2.1086   -0.8409    0.2163 H   0  0  0  0  0  0  0  0  0  0  0  0
   -0.3856   -0.5121    0.5071 H   0  0  0  0  0  0  0  0  0  0  0  0
   -2.6120    1.5575    1.0262 H   0  0  0  0  0  0  0  0  0  0  0  0
   -2.8825   -0.4112    2.5101 H   0  0  0  0  0  0  0  0  0  0  0  0
   -2.2920    1.0155    3.4302 H   0  0  0  0  0  0  0  0  0  0  0  0
   -1.1430   -0.3105    2.9938 H   0  0  0  0  0  0  0  0  0  0  0  0
   -0.3550    2.5475    0.5899 H   0  0  0  0  0  0  0  0  0  0  0  0
    0.3594    1.4790    1.8594 H   0  0  0  0  0  0  0  0  0  0  0  0
   -0.8461    2.7463    2.3065 H   0  0  0  0  0  0  0  0  0  0  0  0
    0.0483    1.0181   -2.7065 H   0  0  0  0  0  0  0  0  0  0  0  0
    0.8356    0.6418   -1.1821 H   0  0  0  0  0  0  0  0  0  0  0  0
   -0.4247   -1.7892   -1.5507 H   0  0  0  0  0  0  0  0  0  0  0  0
    0.0368   -0.7910   -4.1928 H   0  0  0  0  0  0  0  0  0  0  0  0
    2.1449   -0.8965   -2.9660 H   0  0  0  0  0  0  0  0  0  0  0  0
    2.8752   -3.2352   -2.9366 H   0  0  0  0  0  0  0  0  0  0  0  0
    1.4225   -3.0382   -3.9345 H   0  0  0  0  0  0  0  0  0  0  0  0
    2.7666   -4.4034   -0.7331 H   0  0  0  0  0  0  0  0  0  0  0  0
    1.6224   -6.1356    0.6024 H   0  0  0  0  0  0  0  0  0  0  0  0
   -0.6908   -6.8233    0.0360 H   0  0  0  0  0  0  0  0  0  0  0  0
   -1.8622   -5.7753   -1.8807 H   0  0  0  0  0  0  0  0  0  0  0  0
   -0.7356   -4.0446   -3.2301 H   0  0  0  0  0  0  0  0  0  0  0  0
    1.6473   -1.9887   -0.1576 H   0  0  0  0  0  0  0  0  0  0  0  0
    5.8631   -0.3454    0.4397 H   0  0  0  0  0  0  0  0  0  0  0  0
    4.4575   -0.6457    3.1335 H   0  0  0  0  0  0  0  0  0  0  0  0
    6.0195   -1.3450    2.5555 H   0  0  0  0  0  0  0  0  0  0  0  0
    6.5242    2.3505    2.0335 H   0  0  0  0  0  0  0  0  0  0  0  0
    5.1129    4.2845    2.0291 H   0  0  0  0  0  0  0  0  0  0  0  0
    3.9376    4.4516    3.3606 H   0  0  0  0  0  0  0  0  0  0  0  0
    2.2110    3.4739    2.1775 H   0  0  0  0  0  0  0  0  0  0  0  0
    3.2201    3.8848    0.7499 H   0  0  0  0  0  0  0  0  0  0  0  0
    2.7168    1.5911    0.4201 H   0  0  0  0  0  0  0  0  0  0  0  0
    2.8461    1.2044    2.1745 H   0  0  0  0  0  0  0  0  0  0  0  0
    5.1653    1.8640    0.2346 H   0  0  0  0  0  0  0  0  0  0  0  0
   -4.8207   -0.6186   -0.3450 H   0  0  0  0  0  0  0  0  0  0  0  0
   -6.6767    0.4873    0.8004 H   0  0  0  0  0  0  0  0  0  0  0  0
  1  2  1  0
  2  3  1  0
  3  4  2  0
  4  5  1  0
  5  6  2  0
  6  7  1  0
  7  8  2  0
  7  9  2  0
  7 10  1  0
 10 11  1  0
 11 12  1  0
 12 13  1  0
 12 14  1  0
 10 15  1  0
 15 16  1  0
 16 17  1  0
 16 18  1  0
 18 19  1  0
 19 20  1  0
 20 21  2  0
 21 22  1  0
 22 23  2  0
 23 24  1  0
 24 25  2  0
 18 26  1  0
 26 27  1  0
 27 28  2  0
 27 29  1  0
 29 30  1  0
 30 31  1  0
 31 32  1  0
 32 33  1  0
 33 34  1  0
 34 35  1  0
 35 36  1  0
 36 37  1  0
 37 38  1  0
  6 39  1  0
 39 40  2  0
 25 20  1  0
 38 30  1  0
 38 33  1  0
 40  3  1  0
  1 41  1  0
  1 42  1  0
  1 43  1  0
  4 44  1  0
  5 45  1  0
 11 46  1  0
 11 47  1  0
 12 48  1  0
 13 49  1  0
 13 50  1  0
 13 51  1  0
 14 52  1  0
 14 53  1  0
 14 54  1  0
 15 55  1  0
 15 56  1  0
 16 57  1  1
 17 58  1  0
 18 59  1  6
 19 60  1  0
 19 61  1  0
 21 62  1  0
 22 63  1  0
 23 64  1  0
 24 65  1  0
 25 66  1  0
 26 67  1  0
 30 68  1  6
 31 69  1  0
 31 70  1  0
 33 71  1  6
 35 72  1  0
 35 73  1  0
 36 74  1  0
 36 75  1  0
 37 76  1  0
 37 77  1  0
 38 78  1  6
 39 79  1  0
 40 80  1  0
M  END
$$$$
