
     RDKit          3D

 80 83  0  0  0  0  0  0  0  0999 V2000
    5.7990    4.0157   -5.4512 C   0  0  0  0  0  0  0  0  0  0  0  0
    6.1012    3.5077   -4.1559 O   0  0  0  0  0  0  0  0  0  0  0  0
    5.1620    2.9141   -3.2995 C   0  0  0  0  0  0  0  0  0  0  0  0
    3.8067    2.7646   -3.6517 C   0  0  0  0  0  0  0  0  0  0  0  0
    2.9100    2.1647   -2.7626 C   0  0  0  0  0  0  0  0  0  0  0  0
    3.3514    1.7087   -1.5141 C   0  0  0  0  0  0  0  0  0  0  0  0
    2.2197    0.9339   -0.4044 S   0  0  0  0  0  0  0  0  0  0  0  0
    2.7325    1.0563    1.0028 O   0  0  0  0  0  0  0  0  0  0  0  0
    0.9083    1.6677   -0.4660 O   0  0  0  0  0  0  0  0  0  0  0  0
    1.9822   -0.7589   -0.8096 N   0  0  0  0  0  0  0  0  0  0  0  0
    3.2774   -1.4734   -0.9040 C   0  0  0  0  0  0  0  0  0  0  0  0
    3.8473   -1.8475    0.4820 C   0  0  0  0  0  0  0  0  0  0  0  0
    5.1167   -2.6931    0.3190 C   0  0  0  0  0  0  0  0  0  0  0  0
    2.8159   -2.6006    1.3333 C   0  0  0  0  0  0  0  0  0  0  0  0
    1.2100   -0.8815   -2.0692 C   0  0  0  0  0  0  0  0  0  0  0  0
    0.2482   -2.0942   -2.0380 C   0  0  1  0  0  0  0  0  0  0  0  0
    0.9711   -3.2930   -2.1506 O   0  0  0  0  0  0  0  0  0  0  0  0
   -0.6135   -2.1322   -0.7538 C   0  0  2  0  0  0  0  0  0  0  0  0
   -1.6388   -3.2826   -0.8048 C   0  0  0  0  0  0  0  0  0  0  0  0
   -2.4450   -3.3506    0.4676 C   0  0  0  0  0  0  0  0  0  0  0  0
   -1.8914   -3.9246    1.6243 C   0  0  0  0  0  0  0  0  0  0  0  0
   -2.6134   -3.9317    2.8217 C   0  0  0  0  0  0  0  0  0  0  0  0
   -3.8891   -3.3633    2.8741 C   0  0  0  0  0  0  0  0  0  0  0  0
   -4.4448   -2.7860    1.7292 C   0  0  0  0  0  0  0  0  0  0  0  0
   -3.7253   -2.7740    0.5306 C   0  0  0  0  0  0  0  0  0  0  0  0
   -1.3153   -0.8557   -0.5761 N   0  0  0  0  0  0  0  0  0  0  0  0
   -1.3992   -0.1860    0.6871 C   0  0  0  0  0  0  0  0  0  0  0  0
   -0.7077   -0.5787    1.6670 O   0  0  0  0  0  0  0  0  0  0  0  0
   -2.2603    0.9060    0.8223 O   0  0  0  0  0  0  0  0  0  0  0  0
   -2.4525    1.5996    2.0569 C   0  0  2  0  0  0  0  0  0  0  0  0
   -3.1886    0.7475    3.0957 C   0  0  0  0  0  0  0  0  0  0  0  0
   -4.1220    1.5527    3.7892 O   0  0  0  0  0  0  0  0  0  0  0  0
   -3.9341    2.8699    3.3257 C   0  0  2  0  0  0  0  0  0  0  0  0
   -5.1151    3.6484    3.4512 O   0  0  0  0  0  0  0  0  0  0  0  0
   -6.1203    3.2252    2.5548 C   0  0  0  0  0  0  0  0  0  0  0  0
   -5.6738    3.4489    1.1136 C   0  0  0  0  0  0  0  0  0  0  0  0
   -4.4570    2.5779    0.8390 C   0  0  0  0  0  0  0  0  0  0  0  0
   -3.3597    2.8016    1.9078 C   0  0  2  0  0  0  0  0  0  0  0  0
    4.6997    1.8560   -1.1622 C   0  0  0  0  0  0  0  0  0  0  0  0
    5.5970    2.4551   -2.0506 C   0  0  0  0  0  0  0  0  0  0  0  0
    5.0477    4.8301   -5.3763 H   0  0  0  0  0  0  0  0  0  0  0  0
    6.7243    4.4266   -5.9045 H   0  0  0  0  0  0  0  0  0  0  0  0
    5.4161    3.2008   -6.1012 H   0  0  0  0  0  0  0  0  0  0  0  0
    3.4371    3.1068   -4.6086 H   0  0  0  0  0  0  0  0  0  0  0  0
    1.8722    2.0551   -3.0499 H   0  0  0  0  0  0  0  0  0  0  0  0
    4.0220   -0.8753   -1.4708 H   0  0  0  0  0  0  0  0  0  0  0  0
    3.1560   -2.4189   -1.4738 H   0  0  0  0  0  0  0  0  0  0  0  0
    4.1440   -0.9264    1.0225 H   0  0  0  0  0  0  0  0  0  0  0  0
    5.8702   -2.1401   -0.2818 H   0  0  0  0  0  0  0  0  0  0  0  0
    4.8872   -3.6545   -0.1892 H   0  0  0  0  0  0  0  0  0  0  0  0
    5.5628   -2.9117    1.3128 H   0  0  0  0  0  0  0  0  0  0  0  0
    2.4364   -3.4937    0.7917 H   0  0  0  0  0  0  0  0  0  0  0  0
    1.9627   -1.9348    1.5799 H   0  0  0  0  0  0  0  0  0  0  0  0
    3.2718   -2.9283    2.2918 H   0  0  0  0  0  0  0  0  0  0  0  0
    0.5818    0.0161   -2.2505 H   0  0  0  0  0  0  0  0  0  0  0  0
    1.8837   -0.9503   -2.9537 H   0  0  0  0  0  0  0  0  0  0  0  0
   -0.4406   -2.0019   -2.9115 H   0  0  0  0  0  0  0  0  0  0  0  0
    1.2603   -3.3677   -3.0975 H   0  0  0  0  0  0  0  0  0  0  0  0
    0.0664   -2.3212    0.1041 H   0  0  0  0  0  0  0  0  0  0  0  0
   -1.1128   -4.2520   -0.9458 H   0  0  0  0  0  0  0  0  0  0  0  0
   -2.3128   -3.1479   -1.6795 H   0  0  0  0  0  0  0  0  0  0  0  0
   -0.8979   -4.3553    1.5998 H   0  0  0  0  0  0  0  0  0  0  0  0
   -2.1816   -4.3730    3.7106 H   0  0  0  0  0  0  0  0  0  0  0  0
   -4.4449   -3.3660    3.8027 H   0  0  0  0  0  0  0  0  0  0  0  0
   -5.4290   -2.3379    1.7733 H   0  0  0  0  0  0  0  0  0  0  0  0
   -4.1602   -2.3054   -0.3434 H   0  0  0  0  0  0  0  0  0  0  0  0
   -1.9041   -0.4953   -1.3608 H   0  0  0  0  0  0  0  0  0  0  0  0
   -1.4686    1.9306    2.4624 H   0  0  0  0  0  0  0  0  0  0  0  0
   -3.7381   -0.0797    2.5984 H   0  0  0  0  0  0  0  0  0  0  0  0
   -2.4672    0.3065    3.8163 H   0  0  0  0  0  0  0  0  0  0  0  0
   -3.1692    3.3482    3.9796 H   0  0  0  0  0  0  0  0  0  0  0  0
   -6.3962    2.1604    2.7296 H   0  0  0  0  0  0  0  0  0  0  0  0
   -7.0309    3.8328    2.7399 H   0  0  0  0  0  0  0  0  0  0  0  0
   -6.4957    3.1757    0.4172 H   0  0  0  0  0  0  0  0  0  0  0  0
   -5.4175    4.5201    0.9599 H   0  0  0  0  0  0  0  0  0  0  0  0
   -4.7896    1.5153    0.8289 H   0  0  0  0  0  0  0  0  0  0  0  0
   -4.0510    2.8147   -0.1682 H   0  0  0  0  0  0  0  0  0  0  0  0
   -2.7806    3.7220    1.6710 H   0  0  0  0  0  0  0  0  0  0  0  0
    5.0596    1.4994   -0.2056 H   0  0  0  0  0  0  0  0  0  0  0  0
    6.6369    2.5613   -1.7685 H   0  0  0  0  0  0  0  0  0  0  0  0
  1  2  1  0
  2  3  1  0
  3  4  2  0
  4  5  1  0
  5  6  2  0
  6  7  1  0
  7  8  2  0
  7  9  2  0
  7 10  1  0
 10 11  1  0
 11 12  1  0
 12 13  1  0
 12 14  1  0
 10 15  1  0
 15 16  1  0
 16 17  1  0
 16 18  1  0
 18 19  1  0
 19 20  1  0
 20 21  2  0
 21 22  1  0
 22 23  2  0
 23 24  1  0
 24 25  2  0
 18 26  1  0
 26 27  1  0
 27 28  2  0
 27 29  1  0
 29 30  1  0
 30 31  1  0
 31 32  1  0
 32 33  1  0
 33 34  1  0
 34 35  1  0
 35 36  1  0
 36 37  1  0
 37 38  1  0
  6 39  1  0
 39 40  2  0
 25 20  1  0
 38 30  1  0
 38 33  1  0
 40  3  1  0
  1 41  1  0
  1 42  1  0
  1 43  1  0
  4 44  1  0
  5 45  1  0
 11 46  1  0
 11 47  1  0
 12 48  1  0
 13 49  1  0
 13 50  1  0
 13 51  1  0
 14 52  1  0
 14 53  1  0
 14 54  1  0
 15 55  1  0
 15 56  1  0
 16 57  1  6
 17 58  1  0
 18 59  1  1
 19 60  1  0
 19 61  1  0
 21 62  1  0
 22 63  1  0
 23 64  1  0
 24 65  1  0
 25 66  1  0
 26 67  1  0
 30 68  1  1
 31 69  1  0
 31 70  1  0
 33 71  1  1
 35 72  1  0
 35 73  1  0
 36 74  1  0
 36 75  1  0
 37 76  1  0
 37 77  1  0
 38 78  1  6
 39 79  1  0
 40 80  1  0
M  END
$$$$
