
     RDKit          3D

 63 66  0  0  0  0  0  0  0  0999 V2000
   -1.5020   -4.6718    0.8512 C   0  0  0  0  0  0  0  0  0  0  0  0
   -1.7014   -3.1905    1.1778 C   0  0  0  0  0  0  0  0  0  0  0  0
   -1.0142   -2.2586    0.1497 C   0  0  0  0  0  0  0  0  0  0  0  0
    0.5036   -2.3746    0.0578 C   0  0  0  0  0  0  0  0  0  0  0  0
    1.3107   -2.7608    1.1467 C   0  0  0  0  0  0  0  0  0  0  0  0
    2.7000   -2.8004    1.0188 C   0  0  0  0  0  0  0  0  0  0  0  0
    3.3078   -2.4397   -0.1838 C   0  0  0  0  0  0  0  0  0  0  0  0
    2.5269   -2.0269   -1.2763 C   0  0  0  0  0  0  0  0  0  0  0  0
    3.1236   -1.6219   -2.5202 N   0  0  0  0  0  0  0  0  0  0  0  0
    4.7657   -1.0777   -2.6563 S   0  0  0  0  0  0  0  0  0  0  0  0
    4.9597   -0.4101   -3.9883 O   0  0  0  0  0  0  0  0  0  0  0  0
    5.6861   -2.2626   -2.5626 O   0  0  0  0  0  0  0  0  0  0  0  0
    5.1150    0.0880   -1.3831 C   0  0  0  0  0  0  0  0  0  0  0  0
    4.1527    1.0444   -1.0306 C   0  0  0  0  0  0  0  0  0  0  0  0
    4.4129    1.9605   -0.0071 C   0  0  0  0  0  0  0  0  0  0  0  0
    5.6399    1.9290    0.6676 C   0  0  0  0  0  0  0  0  0  0  0  0
    5.9076    2.8712    1.7223 C   0  0  0  0  0  0  0  0  0  0  0  0
    6.1228    3.6286    2.5704 N   0  0  0  0  0  0  0  0  0  0  0  0
    6.6058    0.9785    0.3128 C   0  0  0  0  0  0  0  0  0  0  0  0
    6.3445    0.0612   -0.7099 C   0  0  0  0  0  0  0  0  0  0  0  0
    1.1302   -2.0059   -1.1473 C   0  0  0  0  0  0  0  0  0  0  0  0
   -1.4259   -0.8014    0.3673 C   0  0  0  0  0  0  0  0  0  0  0  0
   -2.2194   -0.1257   -0.5837 C   0  0  0  0  0  0  0  0  0  0  0  0
   -2.6891   -0.8366   -1.6946 O   0  0  0  0  0  0  0  0  0  0  0  0
   -2.5433    1.2389   -0.3860 C   0  0  0  0  0  0  0  0  0  0  0  0
   -3.4296    1.9869   -1.3570 C   0  0  0  0  0  0  0  0  0  0  0  0
   -4.9333    1.8606   -1.0091 C   0  0  0  0  0  0  0  0  0  0  0  0
   -5.2603    1.5843    0.4797 C   0  0  0  0  0  0  0  0  0  0  0  0
   -5.0013    2.7382    1.4784 C   0  0  0  0  0  0  0  0  0  0  0  0
   -3.9207    3.7657    1.0995 C   0  0  0  0  0  0  0  0  0  0  0  0
   -2.4499    3.2907    1.1873 C   0  0  0  0  0  0  0  0  0  0  0  0
   -2.1460    1.8497    0.8281 C   0  0  0  0  0  0  0  0  0  0  0  0
   -1.4233    1.1622    1.7042 O   0  0  0  0  0  0  0  0  0  0  0  0
   -1.0496   -0.0960    1.5275 C   0  0  0  0  0  0  0  0  0  0  0  0
   -0.3566   -0.6470    2.4221 O   0  0  0  0  0  0  0  0  0  0  0  0
   -1.8977   -4.9013   -0.1609 H   0  0  0  0  0  0  0  0  0  0  0  0
   -0.4280   -4.9467    0.8932 H   0  0  0  0  0  0  0  0  0  0  0  0
   -2.0503   -5.2907    1.5922 H   0  0  0  0  0  0  0  0  0  0  0  0
   -2.7950   -2.9873    1.1630 H   0  0  0  0  0  0  0  0  0  0  0  0
   -1.3566   -2.9900    2.2123 H   0  0  0  0  0  0  0  0  0  0  0  0
   -1.3979   -2.6017   -0.8350 H   0  0  0  0  0  0  0  0  0  0  0  0
    0.8806   -3.0333    2.0990 H   0  0  0  0  0  0  0  0  0  0  0  0
    3.3096   -3.1081    1.8587 H   0  0  0  0  0  0  0  0  0  0  0  0
    4.3852   -2.4877   -0.2524 H   0  0  0  0  0  0  0  0  0  0  0  0
    2.5144   -1.5033   -3.3605 H   0  0  0  0  0  0  0  0  0  0  0  0
    3.1999    1.0766   -1.5439 H   0  0  0  0  0  0  0  0  0  0  0  0
    3.6583    2.6913    0.2582 H   0  0  0  0  0  0  0  0  0  0  0  0
    7.5588    0.9457    0.8272 H   0  0  0  0  0  0  0  0  0  0  0  0
    7.0990   -0.6690   -0.9726 H   0  0  0  0  0  0  0  0  0  0  0  0
    0.5265   -1.6790   -1.9858 H   0  0  0  0  0  0  0  0  0  0  0  0
   -3.3662   -0.4834   -2.3555 H   0  0  0  0  0  0  0  0  0  0  0  0
   -3.1233    3.0494   -1.4063 H   0  0  0  0  0  0  0  0  0  0  0  0
   -3.2559    1.6536   -2.3996 H   0  0  0  0  0  0  0  0  0  0  0  0
   -5.4721    2.7718   -1.3473 H   0  0  0  0  0  0  0  0  0  0  0  0
   -5.3458    1.0130   -1.5985 H   0  0  0  0  0  0  0  0  0  0  0  0
   -4.7364    0.6676    0.8244 H   0  0  0  0  0  0  0  0  0  0  0  0
   -6.3402    1.3256    0.5408 H   0  0  0  0  0  0  0  0  0  0  0  0
   -5.9545    3.2993    1.5977 H   0  0  0  0  0  0  0  0  0  0  0  0
   -4.7623    2.3097    2.4760 H   0  0  0  0  0  0  0  0  0  0  0  0
   -4.0229    4.6194    1.8053 H   0  0  0  0  0  0  0  0  0  0  0  0
   -4.1464    4.2170    0.1137 H   0  0  0  0  0  0  0  0  0  0  0  0
   -1.8240    3.9501    0.5488 H   0  0  0  0  0  0  0  0  0  0  0  0
   -2.1066    3.4609    2.2318 H   0  0  0  0  0  0  0  0  0  0  0  0
  1  2  1  0
  2  3  1  0
  3  4  1  0
  4  5  2  0
  5  6  1  0
  6  7  2  0
  7  8  1  0
  8  9  1  0
  9 10  1  0
 10 11  2  0
 10 12  2  0
 10 13  1  0
 13 14  2  0
 14 15  1  0
 15 16  2  0
 16 17  1  0
 17 18  3  0
 16 19  1  0
 19 20  2  0
  8 21  2  0
  3 22  1  0
 22 23  2  0
 23 24  1  0
 23 25  1  0
 25 26  1  0
 26 27  1  0
 27 28  1  0
 28 29  1  0
 29 30  1  0
 30 31  1  0
 31 32  1  0
 32 33  1  0
 33 34  1  0
 34 35  2  0
 20 13  1  0
 21  4  1  0
 32 25  2  0
 34 22  1  0
  1 36  1  0
  1 37  1  0
  1 38  1  0
  2 39  1  0
  2 40  1  0
  3 41  1  0
  5 42  1  0
  6 43  1  0
  7 44  1  0
  9 45  1  0
 14 46  1  0
 15 47  1  0
 19 48  1  0
 20 49  1  0
 21 50  1  0
 24 51  1  0
 26 52  1  0
 26 53  1  0
 27 54  1  0
 27 55  1  0
 28 56  1  0
 28 57  1  0
 29 58  1  0
 29 59  1  0
 30 60  1  0
 30 61  1  0
 31 62  1  0
 31 63  1  0
M  END
$$$$
