
     RDKit          3D

 80 83  0  0  0  0  0  0  0  0999 V2000
   -9.0825    2.4410    2.2928 C   0  0  0  0  0  0  0  0  0  0  0  0
   -7.6818    2.6743    2.3980 O   0  0  0  0  0  0  0  0  0  0  0  0
   -6.6961    1.8178    1.8858 C   0  0  0  0  0  0  0  0  0  0  0  0
   -7.0102    0.6232    1.2092 C   0  0  0  0  0  0  0  0  0  0  0  0
   -5.9905   -0.1956    0.7144 C   0  0  0  0  0  0  0  0  0  0  0  0
   -4.6479    0.1683    0.8857 C   0  0  0  0  0  0  0  0  0  0  0  0
   -3.3499   -0.8360    0.2493 S   0  0  0  0  0  0  0  0  0  0  0  0
   -3.9234   -1.9867   -0.5320 O   0  0  0  0  0  0  0  0  0  0  0  0
   -2.5783   -1.3869    1.4171 O   0  0  0  0  0  0  0  0  0  0  0  0
   -2.3168    0.1479   -0.7757 N   0  0  0  0  0  0  0  0  0  0  0  0
   -2.7467    0.1593   -2.1896 C   0  0  0  0  0  0  0  0  0  0  0  0
   -3.9816    1.0590   -2.4029 C   0  0  0  0  0  0  0  0  0  0  0  0
   -4.4317    1.0030   -3.8676 C   0  0  0  0  0  0  0  0  0  0  0  0
   -3.6919    2.5102   -1.9952 C   0  0  0  0  0  0  0  0  0  0  0  0
   -0.8817   -0.1654   -0.5989 C   0  0  0  0  0  0  0  0  0  0  0  0
   -0.4663   -1.5838   -1.0916 C   0  0  1  0  0  0  0  0  0  0  0  0
   -0.4747   -1.6481   -2.4967 O   0  0  0  0  0  0  0  0  0  0  0  0
    0.9071   -2.0834   -0.5579 C   0  0  2  0  0  0  0  0  0  0  0  0
    0.9071   -2.4080    0.9559 C   0  0  0  0  0  0  0  0  0  0  0  0
    2.2391   -2.9450    1.4220 C   0  0  0  0  0  0  0  0  0  0  0  0
    3.0370   -2.2002    2.3076 C   0  0  0  0  0  0  0  0  0  0  0  0
    4.2731   -2.6964    2.7317 C   0  0  0  0  0  0  0  0  0  0  0  0
    4.7235   -3.9376    2.2757 C   0  0  0  0  0  0  0  0  0  0  0  0
    3.9335   -4.6896    1.4025 C   0  0  0  0  0  0  0  0  0  0  0  0
    2.6940   -4.1995    0.9799 C   0  0  0  0  0  0  0  0  0  0  0  0
    2.0220   -1.2127   -0.9687 N   0  0  0  0  0  0  0  0  0  0  0  0
    2.3918    0.0424   -0.3802 C   0  0  0  0  0  0  0  0  0  0  0  0
    1.8344    0.4545    0.6720 O   0  0  0  0  0  0  0  0  0  0  0  0
    3.3992    0.7987   -0.9897 O   0  0  0  0  0  0  0  0  0  0  0  0
    3.9070    2.0260   -0.4600 C   0  0  2  0  0  0  0  0  0  0  0  0
    4.3029    2.9446   -1.6117 C   0  0  0  0  0  0  0  0  0  0  0  0
    5.7044    2.9114   -1.7984 O   0  0  0  0  0  0  0  0  0  0  0  0
    6.2335    1.9709   -0.8939 C   0  0  2  0  0  0  0  0  0  0  0  0
    6.4291    0.7512   -1.5908 O   0  0  0  0  0  0  0  0  0  0  0  0
    6.9311   -0.2391   -0.7195 C   0  0  0  0  0  0  0  0  0  0  0  0
    5.8496   -0.6550    0.2727 C   0  0  0  0  0  0  0  0  0  0  0  0
    5.3973    0.5554    1.0941 C   0  0  0  0  0  0  0  0  0  0  0  0
    5.2282    1.8371    0.2487 C   0  0  2  0  0  0  0  0  0  0  0  0
   -4.3341    1.3521    1.5636 C   0  0  0  0  0  0  0  0  0  0  0  0
   -5.3525    2.1713    2.0580 C   0  0  0  0  0  0  0  0  0  0  0  0
   -9.3832    2.3979    1.2247 H   0  0  0  0  0  0  0  0  0  0  0  0
   -9.3511    1.4926    2.8044 H   0  0  0  0  0  0  0  0  0  0  0  0
   -9.6266    3.2748    2.7817 H   0  0  0  0  0  0  0  0  0  0  0  0
   -8.0372    0.3197    1.0591 H   0  0  0  0  0  0  0  0  0  0  0  0
   -6.2518   -1.1074    0.1935 H   0  0  0  0  0  0  0  0  0  0  0  0
   -1.9292    0.5554   -2.8336 H   0  0  0  0  0  0  0  0  0  0  0  0
   -2.9666   -0.8721   -2.5405 H   0  0  0  0  0  0  0  0  0  0  0  0
   -4.8231    0.6807   -1.7874 H   0  0  0  0  0  0  0  0  0  0  0  0
   -4.6790   -0.0420   -4.1525 H   0  0  0  0  0  0  0  0  0  0  0  0
   -5.3418    1.6233   -4.0133 H   0  0  0  0  0  0  0  0  0  0  0  0
   -3.6305    1.3783   -4.5402 H   0  0  0  0  0  0  0  0  0  0  0  0
   -2.8610    2.9294   -2.6024 H   0  0  0  0  0  0  0  0  0  0  0  0
   -3.4127    2.5659   -0.9228 H   0  0  0  0  0  0  0  0  0  0  0  0
   -4.5970    3.1370   -2.1436 H   0  0  0  0  0  0  0  0  0  0  0  0
   -0.2778    0.6046   -1.1259 H   0  0  0  0  0  0  0  0  0  0  0  0
   -0.6415   -0.0425    0.4740 H   0  0  0  0  0  0  0  0  0  0  0  0
   -1.2207   -2.3149   -0.7365 H   0  0  0  0  0  0  0  0  0  0  0  0
    0.1803   -0.9830   -2.8342 H   0  0  0  0  0  0  0  0  0  0  0  0
    1.0643   -3.0615   -1.0671 H   0  0  0  0  0  0  0  0  0  0  0  0
    0.1326   -3.1799    1.1573 H   0  0  0  0  0  0  0  0  0  0  0  0
    0.6183   -1.5257    1.5597 H   0  0  0  0  0  0  0  0  0  0  0  0
    2.7036   -1.2372    2.6724 H   0  0  0  0  0  0  0  0  0  0  0  0
    4.8848   -2.1150    3.4094 H   0  0  0  0  0  0  0  0  0  0  0  0
    5.6831   -4.3178    2.6013 H   0  0  0  0  0  0  0  0  0  0  0  0
    4.2808   -5.6537    1.0542 H   0  0  0  0  0  0  0  0  0  0  0  0
    2.0901   -4.7972    0.3088 H   0  0  0  0  0  0  0  0  0  0  0  0
    2.6140   -1.5456   -1.7630 H   0  0  0  0  0  0  0  0  0  0  0  0
    3.1572    2.5268    0.1933 H   0  0  0  0  0  0  0  0  0  0  0  0
    3.7945    2.6492   -2.5549 H   0  0  0  0  0  0  0  0  0  0  0  0
    4.0042    3.9888   -1.3754 H   0  0  0  0  0  0  0  0  0  0  0  0
    7.2053    2.3576   -0.5106 H   0  0  0  0  0  0  0  0  0  0  0  0
    7.2173   -1.1256   -1.3236 H   0  0  0  0  0  0  0  0  0  0  0  0
    7.8483    0.1061   -0.1886 H   0  0  0  0  0  0  0  0  0  0  0  0
    4.9916   -1.0953   -0.2762 H   0  0  0  0  0  0  0  0  0  0  0  0
    6.2526   -1.4359    0.9525 H   0  0  0  0  0  0  0  0  0  0  0  0
    6.1755    0.7516    1.8644 H   0  0  0  0  0  0  0  0  0  0  0  0
    4.4588    0.3230    1.6381 H   0  0  0  0  0  0  0  0  0  0  0  0
    5.3650    2.7088    0.9300 H   0  0  0  0  0  0  0  0  0  0  0  0
   -3.3005    1.6437    1.7022 H   0  0  0  0  0  0  0  0  0  0  0  0
   -5.0970    3.0869    2.5763 H   0  0  0  0  0  0  0  0  0  0  0  0
  1  2  1  0
  2  3  1  0
  3  4  2  0
  4  5  1  0
  5  6  2  0
  6  7  1  0
  7  8  2  0
  7  9  2  0
  7 10  1  0
 10 11  1  0
 11 12  1  0
 12 13  1  0
 12 14  1  0
 10 15  1  0
 15 16  1  0
 16 17  1  0
 16 18  1  0
 18 19  1  0
 19 20  1  0
 20 21  2  0
 21 22  1  0
 22 23  2  0
 23 24  1  0
 24 25  2  0
 18 26  1  0
 26 27  1  0
 27 28  2  0
 27 29  1  0
 29 30  1  0
 30 31  1  0
 31 32  1  0
 32 33  1  0
 33 34  1  0
 34 35  1  0
 35 36  1  0
 36 37  1  0
 37 38  1  0
  6 39  1  0
 39 40  2  0
 25 20  1  0
 38 30  1  0
 38 33  1  0
 40  3  1  0
  1 41  1  0
  1 42  1  0
  1 43  1  0
  4 44  1  0
  5 45  1  0
 11 46  1  0
 11 47  1  0
 12 48  1  0
 13 49  1  0
 13 50  1  0
 13 51  1  0
 14 52  1  0
 14 53  1  0
 14 54  1  0
 15 55  1  0
 15 56  1  0
 16 57  1  1
 17 58  1  0
 18 59  1  6
 19 60  1  0
 19 61  1  0
 21 62  1  0
 22 63  1  0
 23 64  1  0
 24 65  1  0
 25 66  1  0
 26 67  1  0
 30 68  1  1
 31 69  1  0
 31 70  1  0
 33 71  1  1
 35 72  1  0
 35 73  1  0
 36 74  1  0
 36 75  1  0
 37 76  1  0
 37 77  1  0
 38 78  1  1
 39 79  1  0
 40 80  1  0
M  END
$$$$
