
     RDKit          3D

 73 74  0  0  0  0  0  0  0  0999 V2000
   -4.6496   -5.5794   -0.7873 C   0  0  0  0  0  0  0  0  0  0  0  0
   -4.3694   -4.1469   -1.1049 C   0  0  0  0  0  0  0  0  0  0  0  0
   -3.6443   -3.8582   -2.0953 O   0  0  0  0  0  0  0  0  0  0  0  0
   -4.9429   -3.1095   -0.2967 N   0  0  0  0  0  0  0  0  0  0  0  0
   -4.7040   -1.6866   -0.5707 C   0  0  1  0  0  0  0  0  0  0  0  0
   -5.6654   -0.7846    0.2317 C   0  0  0  0  0  0  0  0  0  0  0  0
   -5.4644   -0.8726    1.7209 C   0  0  0  0  0  0  0  0  0  0  0  0
   -6.3083   -1.7003    2.5217 N   0  0  0  0  0  0  0  0  0  0  0  0
   -4.5401   -0.2135    2.2677 O   0  0  0  0  0  0  0  0  0  0  0  0
   -3.2654   -1.3202   -0.3025 C   0  0  0  0  0  0  0  0  0  0  0  0
   -2.6106   -1.9598    0.5643 O   0  0  0  0  0  0  0  0  0  0  0  0
   -2.6742   -0.2088   -0.9968 N   0  0  0  0  0  0  0  0  0  0  0  0
   -1.3199    0.3130   -0.7642 C   0  0  1  0  0  0  0  0  0  0  0  0
   -1.1788    0.8737    0.6680 C   0  0  0  0  0  0  0  0  0  0  0  0
   -2.2274    2.3537    0.9068 S   0  0  0  0  0  0  0  0  0  0  0  0
   -0.9836    3.5160    0.3326 C   0  0  0  0  0  0  0  0  0  0  0  0
   -0.9746    3.9376   -1.0034 C   0  0  0  0  0  0  0  0  0  0  0  0
    0.0062    4.8290   -1.4499 C   0  0  0  0  0  0  0  0  0  0  0  0
    0.9738    5.3081   -0.5612 C   0  0  0  0  0  0  0  0  0  0  0  0
    0.9582    4.9000    0.7760 C   0  0  0  0  0  0  0  0  0  0  0  0
   -0.0201    4.0068    1.2238 C   0  0  0  0  0  0  0  0  0  0  0  0
   -0.2371   -0.7428   -1.1191 C   0  0  2  0  0  0  0  0  0  0  0  0
    0.0156   -1.5756   -0.0139 O   0  0  0  0  0  0  0  0  0  0  0  0
    1.0661   -0.0537   -1.5837 C   0  0  0  0  0  0  0  0  0  0  0  0
    2.2075   -1.0334   -1.7559 C   0  0  0  0  0  0  0  0  0  0  0  0
    2.2240   -1.8488   -2.9012 C   0  0  0  0  0  0  0  0  0  0  0  0
    3.2767   -2.7372   -3.1270 C   0  0  0  0  0  0  0  0  0  0  0  0
    4.3280   -2.8220   -2.2150 C   0  0  0  0  0  0  0  0  0  0  0  0
    4.3260   -2.0265   -1.0680 C   0  0  0  0  0  0  0  0  0  0  0  0
    3.2674   -1.1379   -0.8167 C   0  0  0  0  0  0  0  0  0  0  0  0
    3.2982   -0.3367    0.4242 C   0  0  0  0  0  0  0  0  0  0  0  0
    2.3093   -0.3698    1.2037 O   0  0  0  0  0  0  0  0  0  0  0  0
    4.4498    0.4692    0.7334 N   0  0  0  0  0  0  0  0  0  0  0  0
    4.5229    1.4409    1.8424 C   0  0  0  0  0  0  0  0  0  0  0  0
    3.4022    2.4914    1.7057 C   0  0  0  0  0  0  0  0  0  0  0  0
    5.8828    2.1666    1.7850 C   0  0  0  0  0  0  0  0  0  0  0  0
    4.4135    0.7134    3.1964 C   0  0  0  0  0  0  0  0  0  0  0  0
   -4.0210   -6.2488   -1.4122 H   0  0  0  0  0  0  0  0  0  0  0  0
   -4.4267   -5.7748    0.2824 H   0  0  0  0  0  0  0  0  0  0  0  0
   -5.7195   -5.7993   -0.9839 H   0  0  0  0  0  0  0  0  0  0  0  0
   -5.5755   -3.3927    0.4847 H   0  0  0  0  0  0  0  0  0  0  0  0
   -4.9153   -1.5052   -1.6478 H   0  0  0  0  0  0  0  0  0  0  0  0
   -6.7135   -1.0573   -0.0186 H   0  0  0  0  0  0  0  0  0  0  0  0
   -5.5254    0.2720   -0.0859 H   0  0  0  0  0  0  0  0  0  0  0  0
   -6.1541   -1.7677    3.5521 H   0  0  0  0  0  0  0  0  0  0  0  0
   -7.0940   -2.2380    2.0932 H   0  0  0  0  0  0  0  0  0  0  0  0
   -3.2579    0.2826   -1.7113 H   0  0  0  0  0  0  0  0  0  0  0  0
   -1.1825    1.1653   -1.4647 H   0  0  0  0  0  0  0  0  0  0  0  0
   -1.4860    0.1163    1.4163 H   0  0  0  0  0  0  0  0  0  0  0  0
   -0.1201    1.1226    0.8902 H   0  0  0  0  0  0  0  0  0  0  0  0
   -1.7232    3.5745   -1.6958 H   0  0  0  0  0  0  0  0  0  0  0  0
    0.0158    5.1489   -2.4838 H   0  0  0  0  0  0  0  0  0  0  0  0
    1.7332    5.9970   -0.9077 H   0  0  0  0  0  0  0  0  0  0  0  0
    1.7063    5.2721    1.4639 H   0  0  0  0  0  0  0  0  0  0  0  0
   -0.0216    3.6881    2.2584 H   0  0  0  0  0  0  0  0  0  0  0  0
   -0.6193   -1.3508   -1.9746 H   0  0  0  0  0  0  0  0  0  0  0  0
    0.2733   -2.4663   -0.3688 H   0  0  0  0  0  0  0  0  0  0  0  0
    1.3473    0.7655   -0.8910 H   0  0  0  0  0  0  0  0  0  0  0  0
    0.8773    0.4438   -2.5607 H   0  0  0  0  0  0  0  0  0  0  0  0
    1.4220   -1.7884   -3.6269 H   0  0  0  0  0  0  0  0  0  0  0  0
    3.2799   -3.3572   -4.0142 H   0  0  0  0  0  0  0  0  0  0  0  0
    5.1447   -3.5093   -2.3946 H   0  0  0  0  0  0  0  0  0  0  0  0
    5.1446   -2.1172   -0.3643 H   0  0  0  0  0  0  0  0  0  0  0  0
    5.2603    0.4027    0.0754 H   0  0  0  0  0  0  0  0  0  0  0  0
    2.3989    2.0391    1.8427 H   0  0  0  0  0  0  0  0  0  0  0  0
    3.5161    3.2885    2.4718 H   0  0  0  0  0  0  0  0  0  0  0  0
    3.4369    2.9618    0.6994 H   0  0  0  0  0  0  0  0  0  0  0  0
    5.9957    2.7031    0.8180 H   0  0  0  0  0  0  0  0  0  0  0  0
    5.9739    2.9078    2.6085 H   0  0  0  0  0  0  0  0  0  0  0  0
    6.7162    1.4369    1.8772 H   0  0  0  0  0  0  0  0  0  0  0  0
    5.1755   -0.0928    3.2620 H   0  0  0  0  0  0  0  0  0  0  0  0
    4.5778    1.4233    4.0358 H   0  0  0  0  0  0  0  0  0  0  0  0
    3.4118    0.2591    3.3361 H   0  0  0  0  0  0  0  0  0  0  0  0
  1  2  1  0
  2  3  2  0
  2  4  1  0
  4  5  1  0
  5  6  1  0
  6  7  1  0
  7  8  1  0
  7  9  2  0
  5 10  1  0
 10 11  2  0
 10 12  1  0
 12 13  1  0
 13 14  1  0
 14 15  1  0
 15 16  1  0
 16 17  2  0
 17 18  1  0
 18 19  2  0
 19 20  1  0
 20 21  2  0
 13 22  1  0
 22 23  1  0
 22 24  1  0
 24 25  1  0
 25 26  2  0
 26 27  1  0
 27 28  2  0
 28 29  1  0
 29 30  2  0
 30 31  1  0
 31 32  2  0
 31 33  1  0
 33 34  1  0
 34 35  1  0
 34 36  1  0
 34 37  1  0
 21 16  1  0
 30 25  1  0
  1 38  1  0
  1 39  1  0
  1 40  1  0
  4 41  1  0
  5 42  1  6
  6 43  1  0
  6 44  1  0
  8 45  1  0
  8 46  1  0
 12 47  1  0
 13 48  1  6
 14 49  1  0
 14 50  1  0
 17 51  1  0
 18 52  1  0
 19 53  1  0
 20 54  1  0
 21 55  1  0
 22 56  1  6
 23 57  1  0
 24 58  1  0
 24 59  1  0
 26 60  1  0
 27 61  1  0
 28 62  1  0
 29 63  1  0
 33 64  1  0
 35 65  1  0
 35 66  1  0
 35 67  1  0
 36 68  1  0
 36 69  1  0
 36 70  1  0
 37 71  1  0
 37 72  1  0
 37 73  1  0
M  END
$$$$
