
     RDKit          3D

 74 77  0  0  0  0  0  0  0  0999 V2000
    3.9147    0.7408   -5.5167 C   0  0  0  0  0  0  0  0  0  0  0  0
    4.7143    0.5716   -4.3507 O   0  0  0  0  0  0  0  0  0  0  0  0
    4.2979    0.8977   -3.0515 C   0  0  0  0  0  0  0  0  0  0  0  0
    3.0279    1.4396   -2.7788 C   0  0  0  0  0  0  0  0  0  0  0  0
    2.6595    1.7438   -1.4653 C   0  0  0  0  0  0  0  0  0  0  0  0
    3.5419    1.4970   -0.4036 C   0  0  0  0  0  0  0  0  0  0  0  0
    3.0659    1.8838    1.2578 S   0  0  0  0  0  0  0  0  0  0  0  0
    2.2382    3.1378    1.2314 O   0  0  0  0  0  0  0  0  0  0  0  0
    4.2993    2.1726    2.0672 O   0  0  0  0  0  0  0  0  0  0  0  0
    2.1397    0.6157    2.0444 N   0  0  0  0  0  0  0  0  0  0  0  0
    1.1817   -0.1307    1.2044 C   0  0  0  0  0  0  0  0  0  0  0  0
   -0.2540    0.3772    1.4567 C   0  0  1  0  0  0  0  0  0  0  0  0
   -0.3676    1.7522    1.1918 O   0  0  0  0  0  0  0  0  0  0  0  0
   -1.3234   -0.4576    0.6951 C   0  0  2  0  0  0  0  0  0  0  0  0
   -1.3348   -0.2402   -0.8386 C   0  0  0  0  0  0  0  0  0  0  0  0
   -2.3454   -1.1338   -1.5128 C   0  0  0  0  0  0  0  0  0  0  0  0
   -2.0595   -2.4941   -1.7181 C   0  0  0  0  0  0  0  0  0  0  0  0
   -3.0086   -3.3318   -2.3120 C   0  0  0  0  0  0  0  0  0  0  0  0
   -4.2498   -2.8199   -2.7001 C   0  0  0  0  0  0  0  0  0  0  0  0
   -4.5441   -1.4692   -2.4953 C   0  0  0  0  0  0  0  0  0  0  0  0
   -3.5973   -0.6277   -1.9039 C   0  0  0  0  0  0  0  0  0  0  0  0
   -2.6578   -0.2623    1.2835 N   0  0  0  0  0  0  0  0  0  0  0  0
   -3.4598    0.9206    1.1596 C   0  0  0  0  0  0  0  0  0  0  0  0
   -3.0054    1.9543    0.5989 O   0  0  0  0  0  0  0  0  0  0  0  0
   -4.7678    0.9057    1.6535 O   0  0  0  0  0  0  0  0  0  0  0  0
   -5.6866    1.9800    1.4561 C   0  0  0  0  0  0  0  0  0  0  0  0
   -6.1597    2.0535    0.0339 C   0  0  0  0  0  0  0  0  0  0  0  0
   -7.5879    2.5402    0.1779 C   0  0  0  0  0  0  0  0  0  0  0  0
   -8.0512    2.2680    1.4820 O   0  0  0  0  0  0  0  0  0  0  0  0
   -6.9732    1.7375    2.2181 C   0  0  0  0  0  0  0  0  0  0  0  0
    2.8835   -0.1635    2.9009 O   0  0  0  0  0  0  0  0  0  0  0  0
    3.7718   -1.0236    2.1967 C   0  0  0  0  0  0  0  0  0  0  0  0
    5.1794   -0.8854    2.7615 C   0  0  0  0  0  0  0  0  0  0  0  0
    5.8285   -2.2380    2.5491 C   0  0  0  0  0  0  0  0  0  0  0  0
    4.7022   -3.2517    2.6735 C   0  0  0  0  0  0  0  0  0  0  0  0
    3.4000   -2.4912    2.4278 C   0  0  0  0  0  0  0  0  0  0  0  0
    4.8155    0.9802   -0.6798 C   0  0  0  0  0  0  0  0  0  0  0  0
    5.1856    0.6765   -1.9928 C   0  0  0  0  0  0  0  0  0  0  0  0
    3.6568    1.8126   -5.6506 H   0  0  0  0  0  0  0  0  0  0  0  0
    4.4889    0.4002   -6.4025 H   0  0  0  0  0  0  0  0  0  0  0  0
    2.9895    0.1318   -5.4368 H   0  0  0  0  0  0  0  0  0  0  0  0
    2.3200    1.6317   -3.5734 H   0  0  0  0  0  0  0  0  0  0  0  0
    1.6831    2.1682   -1.2793 H   0  0  0  0  0  0  0  0  0  0  0  0
    1.4455   -0.0589    0.1335 H   0  0  0  0  0  0  0  0  0  0  0  0
    1.1980   -1.2082    1.4659 H   0  0  0  0  0  0  0  0  0  0  0  0
   -0.4486    0.2370    2.5432 H   0  0  0  0  0  0  0  0  0  0  0  0
   -0.0481    1.9108    0.2680 H   0  0  0  0  0  0  0  0  0  0  0  0
   -1.0577   -1.5270    0.8581 H   0  0  0  0  0  0  0  0  0  0  0  0
   -0.3327   -0.4697   -1.2579 H   0  0  0  0  0  0  0  0  0  0  0  0
   -1.5433    0.8191   -1.0928 H   0  0  0  0  0  0  0  0  0  0  0  0
   -1.1040   -2.9043   -1.4150 H   0  0  0  0  0  0  0  0  0  0  0  0
   -2.7829   -4.3787   -2.4685 H   0  0  0  0  0  0  0  0  0  0  0  0
   -4.9841   -3.4702   -3.1578 H   0  0  0  0  0  0  0  0  0  0  0  0
   -5.5067   -1.0741   -2.7933 H   0  0  0  0  0  0  0  0  0  0  0  0
   -3.8415    0.4159   -1.7502 H   0  0  0  0  0  0  0  0  0  0  0  0
   -3.0896   -1.0765    1.7762 H   0  0  0  0  0  0  0  0  0  0  0  0
   -5.2375    2.9490    1.7727 H   0  0  0  0  0  0  0  0  0  0  0  0
   -5.5429    2.7543   -0.5698 H   0  0  0  0  0  0  0  0  0  0  0  0
   -6.1515    1.0434   -0.4341 H   0  0  0  0  0  0  0  0  0  0  0  0
   -7.6312    3.6374    0.0052 H   0  0  0  0  0  0  0  0  0  0  0  0
   -8.2451    2.0398   -0.5650 H   0  0  0  0  0  0  0  0  0  0  0  0
   -7.1429    0.6475    2.3610 H   0  0  0  0  0  0  0  0  0  0  0  0
   -6.9276    2.2213    3.2170 H   0  0  0  0  0  0  0  0  0  0  0  0
    3.8059   -0.8413    1.1001 H   0  0  0  0  0  0  0  0  0  0  0  0
    5.1353   -0.6682    3.8525 H   0  0  0  0  0  0  0  0  0  0  0  0
    5.7552   -0.0826    2.2579 H   0  0  0  0  0  0  0  0  0  0  0  0
    6.2629   -2.2837    1.5257 H   0  0  0  0  0  0  0  0  0  0  0  0
    6.6299   -2.4239    3.2967 H   0  0  0  0  0  0  0  0  0  0  0  0
    4.6986   -3.6862    3.6976 H   0  0  0  0  0  0  0  0  0  0  0  0
    4.8318   -4.0734    1.9357 H   0  0  0  0  0  0  0  0  0  0  0  0
    2.8757   -2.9050    1.5387 H   0  0  0  0  0  0  0  0  0  0  0  0
    2.7327   -2.5946    3.3123 H   0  0  0  0  0  0  0  0  0  0  0  0
    5.5255    0.8117    0.1164 H   0  0  0  0  0  0  0  0  0  0  0  0
    6.1693    0.2691   -2.1893 H   0  0  0  0  0  0  0  0  0  0  0  0
  1  2  1  0
  2  3  1  0
  3  4  2  0
  4  5  1  0
  5  6  2  0
  6  7  1  0
  7  8  2  0
  7  9  2  0
  7 10  1  0
 10 11  1  0
 11 12  1  0
 12 13  1  0
 12 14  1  0
 14 15  1  0
 15 16  1  0
 16 17  2  0
 17 18  1  0
 18 19  2  0
 19 20  1  0
 20 21  2  0
 14 22  1  0
 22 23  1  0
 23 24  2  0
 23 25  1  0
 25 26  1  0
 26 27  1  0
 27 28  1  0
 28 29  1  0
 29 30  1  0
 10 31  1  0
 31 32  1  0
 32 33  1  0
 33 34  1  0
 34 35  1  0
 35 36  1  0
  6 37  1  0
 37 38  2  0
 21 16  1  0
 30 26  1  0
 36 32  1  0
 38  3  1  0
  1 39  1  0
  1 40  1  0
  1 41  1  0
  4 42  1  0
  5 43  1  0
 11 44  1  0
 11 45  1  0
 12 46  1  1
 13 47  1  0
 14 48  1  6
 15 49  1  0
 15 50  1  0
 17 51  1  0
 18 52  1  0
 19 53  1  0
 20 54  1  0
 21 55  1  0
 22 56  1  0
 26 57  1  0
 27 58  1  0
 27 59  1  0
 28 60  1  0
 28 61  1  0
 30 62  1  0
 30 63  1  0
 32 64  1  0
 33 65  1  0
 33 66  1  0
 34 67  1  0
 34 68  1  0
 35 69  1  0
 35 70  1  0
 36 71  1  0
 36 72  1  0
 37 73  1  0
 38 74  1  0
M  END
$$$$
