
     RDKit          3D

 77 81  0  0  0  0  0  0  0  0999 V2000
    6.2910   -0.6252   -0.2605 C   0  0  0  0  0  0  0  0  0  0  0  0
    5.1098   -0.2648    0.6634 C   0  0  0  0  0  0  0  0  0  0  0  0
    4.6191    1.1500    0.2990 C   0  0  0  0  0  0  0  0  0  0  0  0
    5.6014   -0.3011    2.1235 C   0  0  0  0  0  0  0  0  0  0  0  0
    4.0276   -1.2485    0.4637 N   0  0  0  0  0  0  0  0  0  0  0  0
    2.7351   -1.1918    1.0930 C   0  0  0  0  0  0  0  0  0  0  0  0
    2.5259   -0.4183    2.0654 O   0  0  0  0  0  0  0  0  0  0  0  0
    1.6482   -2.0833    0.6434 C   0  0  0  0  0  0  0  0  0  0  0  0
    1.0565   -2.9306    1.5950 C   0  0  0  0  0  0  0  0  0  0  0  0
    0.0580   -3.8304    1.2225 C   0  0  0  0  0  0  0  0  0  0  0  0
   -0.3675   -3.8899   -0.1020 C   0  0  0  0  0  0  0  0  0  0  0  0
    0.1766   -3.0265   -1.0530 C   0  0  0  0  0  0  0  0  0  0  0  0
    1.1846   -2.1085   -0.7004 C   0  0  0  0  0  0  0  0  0  0  0  0
    1.6829   -1.1403   -1.7603 C   0  0  0  0  0  0  0  0  0  0  0  0
    1.2731    0.3300   -1.4903 C   0  0  1  0  0  0  0  0  0  0  0  0
    1.7893    1.1880   -2.4793 O   0  0  0  0  0  0  0  0  0  0  0  0
   -0.2510    0.5511   -1.2992 C   0  0  2  0  0  0  0  0  0  0  0  0
   -1.0788    0.2455   -2.5658 C   0  0  0  0  0  0  0  0  0  0  0  0
   -2.8647    0.5766   -2.3247 S   0  0  0  0  0  0  0  0  0  0  0  0
   -3.1652   -0.8215   -1.2395 C   0  0  0  0  0  0  0  0  0  0  0  0
   -3.1573   -0.6428    0.1490 C   0  0  0  0  0  0  0  0  0  0  0  0
   -3.3847   -1.7263    1.0007 C   0  0  0  0  0  0  0  0  0  0  0  0
   -3.6423   -2.9980    0.4683 C   0  0  0  0  0  0  0  0  0  0  0  0
   -3.8619   -4.0966    1.3132 C   0  0  0  0  0  0  0  0  0  0  0  0
   -4.1118   -5.3600    0.7699 C   0  0  0  0  0  0  0  0  0  0  0  0
   -4.1467   -5.5358   -0.6161 C   0  0  0  0  0  0  0  0  0  0  0  0
   -3.9291   -4.4500   -1.4692 C   0  0  0  0  0  0  0  0  0  0  0  0
   -3.6731   -3.1769   -0.9370 C   0  0  0  0  0  0  0  0  0  0  0  0
   -3.4343   -2.0830   -1.7821 C   0  0  0  0  0  0  0  0  0  0  0  0
   -0.4872    1.9298   -0.8594 N   0  0  0  0  0  0  0  0  0  0  0  0
   -0.3649    2.3257    0.5158 C   0  0  0  0  0  0  0  0  0  0  0  0
   -0.0364    1.4812    1.3932 O   0  0  0  0  0  0  0  0  0  0  0  0
   -0.5574    3.7367    0.9080 C   0  0  0  0  0  0  0  0  0  0  0  0
    0.4629    4.3663    1.6355 C   0  0  0  0  0  0  0  0  0  0  0  0
    0.3502    5.7149    1.9713 C   0  0  0  0  0  0  0  0  0  0  0  0
   -0.7493    6.4207    1.6048 N   0  0  0  0  0  0  0  0  0  0  0  0
   -1.7735    5.8485    0.9188 C   0  0  0  0  0  0  0  0  0  0  0  0
   -2.8940    6.6171    0.5827 C   0  0  0  0  0  0  0  0  0  0  0  0
   -3.9687    6.0337   -0.0911 C   0  0  0  0  0  0  0  0  0  0  0  0
   -3.9350    4.6781   -0.4223 C   0  0  0  0  0  0  0  0  0  0  0  0
   -2.8211    3.8999   -0.0950 C   0  0  0  0  0  0  0  0  0  0  0  0
   -1.7137    4.4779    0.5598 C   0  0  0  0  0  0  0  0  0  0  0  0
    5.9666   -0.6204   -1.3237 H   0  0  0  0  0  0  0  0  0  0  0  0
    7.1234    0.1027   -0.1453 H   0  0  0  0  0  0  0  0  0  0  0  0
    6.6772   -1.6393   -0.0197 H   0  0  0  0  0  0  0  0  0  0  0  0
    4.2426    1.1691   -0.7461 H   0  0  0  0  0  0  0  0  0  0  0  0
    3.8014    1.4818    0.9714 H   0  0  0  0  0  0  0  0  0  0  0  0
    5.4478    1.8855    0.3866 H   0  0  0  0  0  0  0  0  0  0  0  0
    6.4983    0.3432    2.2501 H   0  0  0  0  0  0  0  0  0  0  0  0
    4.8267    0.0684    2.8252 H   0  0  0  0  0  0  0  0  0  0  0  0
    5.8705   -1.3397    2.4127 H   0  0  0  0  0  0  0  0  0  0  0  0
    4.1969   -2.0532   -0.1829 H   0  0  0  0  0  0  0  0  0  0  0  0
    1.3869   -2.9113    2.6267 H   0  0  0  0  0  0  0  0  0  0  0  0
   -0.3804   -4.4896    1.9606 H   0  0  0  0  0  0  0  0  0  0  0  0
   -1.1299   -4.6006   -0.3909 H   0  0  0  0  0  0  0  0  0  0  0  0
   -0.1967   -3.0739   -2.0682 H   0  0  0  0  0  0  0  0  0  0  0  0
    1.3176   -1.4466   -2.7641 H   0  0  0  0  0  0  0  0  0  0  0  0
    2.7873   -1.1989   -1.8284 H   0  0  0  0  0  0  0  0  0  0  0  0
    1.7564    0.6315   -0.5400 H   0  0  0  0  0  0  0  0  0  0  0  0
    1.5597    0.8107   -3.3675 H   0  0  0  0  0  0  0  0  0  0  0  0
   -0.5946   -0.1372   -0.5008 H   0  0  0  0  0  0  0  0  0  0  0  0
   -0.7409    0.8886   -3.4041 H   0  0  0  0  0  0  0  0  0  0  0  0
   -0.9484   -0.8118   -2.8742 H   0  0  0  0  0  0  0  0  0  0  0  0
   -2.9616    0.3352    0.5702 H   0  0  0  0  0  0  0  0  0  0  0  0
   -3.3587   -1.5708    2.0726 H   0  0  0  0  0  0  0  0  0  0  0  0
   -3.8368   -3.9793    2.3900 H   0  0  0  0  0  0  0  0  0  0  0  0
   -4.2785   -6.2053    1.4249 H   0  0  0  0  0  0  0  0  0  0  0  0
   -4.3402   -6.5168   -1.0303 H   0  0  0  0  0  0  0  0  0  0  0  0
   -3.9544   -4.6060   -2.5410 H   0  0  0  0  0  0  0  0  0  0  0  0
   -3.4475   -2.2089   -2.8583 H   0  0  0  0  0  0  0  0  0  0  0  0
   -0.6167    2.6741   -1.5825 H   0  0  0  0  0  0  0  0  0  0  0  0
    1.3558    3.8221    1.9197 H   0  0  0  0  0  0  0  0  0  0  0  0
    1.1439    6.2044    2.5196 H   0  0  0  0  0  0  0  0  0  0  0  0
   -2.9370    7.6657    0.8504 H   0  0  0  0  0  0  0  0  0  0  0  0
   -4.8348    6.6307   -0.3460 H   0  0  0  0  0  0  0  0  0  0  0  0
   -4.7784    4.2260   -0.9284 H   0  0  0  0  0  0  0  0  0  0  0  0
   -2.8465    2.8482   -0.3390 H   0  0  0  0  0  0  0  0  0  0  0  0
  1  2  1  0
  2  3  1  0
  2  4  1  0
  2  5  1  0
  5  6  1  0
  6  7  2  0
  6  8  1  0
  8  9  2  0
  9 10  1  0
 10 11  2  0
 11 12  1  0
 12 13  2  0
 13 14  1  0
 14 15  1  0
 15 16  1  0
 15 17  1  0
 17 18  1  0
 18 19  1  0
 19 20  1  0
 20 21  2  0
 21 22  1  0
 22 23  2  0
 23 24  1  0
 24 25  2  0
 25 26  1  0
 26 27  2  0
 27 28  1  0
 28 29  2  0
 17 30  1  0
 30 31  1  0
 31 32  2  0
 31 33  1  0
 33 34  2  0
 34 35  1  0
 35 36  2  0
 36 37  1  0
 37 38  2  0
 38 39  1  0
 39 40  2  0
 40 41  1  0
 41 42  2  0
 13  8  1  0
 28 23  1  0
 29 20  1  0
 42 33  1  0
 42 37  1  0
  1 43  1  0
  1 44  1  0
  1 45  1  0
  3 46  1  0
  3 47  1  0
  3 48  1  0
  4 49  1  0
  4 50  1  0
  4 51  1  0
  5 52  1  0
  9 53  1  0
 10 54  1  0
 11 55  1  0
 12 56  1  0
 14 57  1  0
 14 58  1  0
 15 59  1  1
 16 60  1  0
 17 61  1  1
 18 62  1  0
 18 63  1  0
 21 64  1  0
 22 65  1  0
 24 66  1  0
 25 67  1  0
 26 68  1  0
 27 69  1  0
 29 70  1  0
 30 71  1  0
 34 72  1  0
 35 73  1  0
 38 74  1  0
 39 75  1  0
 40 76  1  0
 41 77  1  0
M  END
$$$$
