
     RDKit          3D

 71 74  0  0  0  0  0  0  0  0999 V2000
    2.9816   -4.2265   -1.7770 C   0  0  0  0  0  0  0  0  0  0  0  0
    2.5724   -2.7612   -1.5518 C   0  0  0  0  0  0  0  0  0  0  0  0
    3.8132   -1.8459   -1.5361 C   0  0  0  0  0  0  0  0  0  0  0  0
    1.5517   -2.5804   -0.3569 C   0  0  0  0  0  0  0  0  0  0  0  0
    1.8918   -3.4089    0.9277 C   0  0  0  0  0  0  0  0  0  0  0  0
    3.2360   -3.1778    1.6460 C   0  0  0  0  0  0  0  0  0  0  0  0
    3.3464   -1.8321    2.2919 C   0  0  0  0  0  0  0  0  0  0  0  0
    4.2906   -0.9206    1.9506 N   0  0  0  0  0  0  0  0  0  0  0  0
    4.1647    0.2099    2.6905 C   0  0  0  0  0  0  0  0  0  0  0  0
    4.9837    1.3326    2.5604 C   0  0  0  0  0  0  0  0  0  0  0  0
    4.7430    2.4431    3.3881 C   0  0  0  0  0  0  0  0  0  0  0  0
    3.6943    2.4183    4.3296 C   0  0  0  0  0  0  0  0  0  0  0  0
    2.8773    1.2829    4.4515 C   0  0  0  0  0  0  0  0  0  0  0  0
    3.1365    0.1969    3.6196 C   0  0  0  0  0  0  0  0  0  0  0  0
    2.3371   -1.2754    3.5362 S   0  0  0  0  0  0  0  0  0  0  0  0
    1.3278   -1.0839    0.0050 C   0  0  0  0  0  0  0  0  0  0  0  0
    0.6003   -0.3798   -1.1004 C   0  0  0  0  0  0  0  0  0  0  0  0
    0.8946    0.8090   -1.3863 O   0  0  0  0  0  0  0  0  0  0  0  0
   -0.4845   -1.0812   -1.8056 C   0  0  0  0  0  0  0  0  0  0  0  0
   -1.6384   -0.1923   -2.8765 S   0  0  0  0  0  0  0  0  0  0  0  0
   -2.6374    0.4889   -1.5296 C   0  0  0  0  0  0  0  0  0  0  0  0
   -3.2871   -0.4458   -0.7104 C   0  0  0  0  0  0  0  0  0  0  0  0
   -3.9575   -0.0624    0.4530 C   0  0  0  0  0  0  0  0  0  0  0  0
   -4.5923   -1.1219    1.3168 C   0  0  0  0  0  0  0  0  0  0  0  0
   -3.9633    1.2949    0.8226 C   0  0  0  0  0  0  0  0  0  0  0  0
   -4.6352    1.7693    2.0917 C   0  0  0  0  0  0  0  0  0  0  0  0
   -6.0177    1.8830    1.8937 O   0  0  0  0  0  0  0  0  0  0  0  0
   -3.4092    2.2473   -0.0455 C   0  0  0  0  0  0  0  0  0  0  0  0
   -2.7825    1.8897   -1.2687 C   0  0  0  0  0  0  0  0  0  0  0  0
   -2.3914    2.9962   -2.3013 C   0  0  0  0  0  0  0  0  0  0  0  0
   -3.1076    2.7425   -3.6495 C   0  0  0  0  0  0  0  0  0  0  0  0
   -2.8202    4.4212   -1.8526 C   0  0  0  0  0  0  0  0  0  0  0  0
   -0.8647    3.0515   -2.5155 C   0  0  0  0  0  0  0  0  0  0  0  0
   -0.6075   -2.4046   -1.6319 C   0  0  0  0  0  0  0  0  0  0  0  0
   -1.6330   -3.1042   -2.2607 O   0  0  0  0  0  0  0  0  0  0  0  0
    0.2917   -3.1065   -0.8113 O   0  0  0  0  0  0  0  0  0  0  0  0
    3.5072   -4.3303   -2.7504 H   0  0  0  0  0  0  0  0  0  0  0  0
    3.6638   -4.5829   -0.9789 H   0  0  0  0  0  0  0  0  0  0  0  0
    2.0835   -4.8793   -1.8078 H   0  0  0  0  0  0  0  0  0  0  0  0
    2.0303   -2.4703   -2.4793 H   0  0  0  0  0  0  0  0  0  0  0  0
    3.5185   -0.7876   -1.6938 H   0  0  0  0  0  0  0  0  0  0  0  0
    4.4939   -2.1103   -2.3734 H   0  0  0  0  0  0  0  0  0  0  0  0
    4.3870   -1.9180   -0.5980 H   0  0  0  0  0  0  0  0  0  0  0  0
    1.0749   -3.2622    1.6687 H   0  0  0  0  0  0  0  0  0  0  0  0
    1.8405   -4.4892    0.6721 H   0  0  0  0  0  0  0  0  0  0  0  0
    3.3207   -3.9343    2.4553 H   0  0  0  0  0  0  0  0  0  0  0  0
    4.0932   -3.3699    0.9759 H   0  0  0  0  0  0  0  0  0  0  0  0
    5.7879    1.3506    1.8361 H   0  0  0  0  0  0  0  0  0  0  0  0
    5.3670    3.3231    3.3015 H   0  0  0  0  0  0  0  0  0  0  0  0
    3.5175    3.2787    4.9617 H   0  0  0  0  0  0  0  0  0  0  0  0
    2.0691    1.2543    5.1708 H   0  0  0  0  0  0  0  0  0  0  0  0
    2.2770   -0.5582    0.2222 H   0  0  0  0  0  0  0  0  0  0  0  0
    0.6934   -1.0072    0.9143 H   0  0  0  0  0  0  0  0  0  0  0  0
   -3.2404   -1.4956   -0.9662 H   0  0  0  0  0  0  0  0  0  0  0  0
   -5.6178   -0.8169    1.6119 H   0  0  0  0  0  0  0  0  0  0  0  0
   -3.9762   -1.2789    2.2268 H   0  0  0  0  0  0  0  0  0  0  0  0
   -4.6759   -2.0906    0.7793 H   0  0  0  0  0  0  0  0  0  0  0  0
   -4.4461    1.0548    2.9194 H   0  0  0  0  0  0  0  0  0  0  0  0
   -4.2143    2.7444    2.4280 H   0  0  0  0  0  0  0  0  0  0  0  0
   -6.1593    2.7009    1.3487 H   0  0  0  0  0  0  0  0  0  0  0  0
   -3.4992    3.2780    0.2576 H   0  0  0  0  0  0  0  0  0  0  0  0
   -2.9406    3.5870   -4.3533 H   0  0  0  0  0  0  0  0  0  0  0  0
   -4.2024    2.6358   -3.4896 H   0  0  0  0  0  0  0  0  0  0  0  0
   -2.7432    1.8368   -4.1655 H   0  0  0  0  0  0  0  0  0  0  0  0
   -3.9171    4.4713   -1.6781 H   0  0  0  0  0  0  0  0  0  0  0  0
   -2.5796    5.1769   -2.6324 H   0  0  0  0  0  0  0  0  0  0  0  0
   -2.2793    4.7310   -0.9321 H   0  0  0  0  0  0  0  0  0  0  0  0
   -0.3429    3.1123   -1.5368 H   0  0  0  0  0  0  0  0  0  0  0  0
   -0.5803    3.9468   -3.1104 H   0  0  0  0  0  0  0  0  0  0  0  0
   -0.4851    2.1839   -3.0827 H   0  0  0  0  0  0  0  0  0  0  0  0
   -1.7305   -4.1033   -2.1290 H   0  0  0  0  0  0  0  0  0  0  0  0
  1  2  1  0
  2  3  1  0
  2  4  1  0
  4  5  1  0
  5  6  1  0
  6  7  1  0
  7  8  2  0
  8  9  1  0
  9 10  2  0
 10 11  1  0
 11 12  2  0
 12 13  1  0
 13 14  2  0
 14 15  1  0
  4 16  1  0
 16 17  1  0
 17 18  2  0
 17 19  1  0
 19 20  1  0
 20 21  1  0
 21 22  2  0
 22 23  1  0
 23 24  1  0
 23 25  2  0
 25 26  1  0
 26 27  1  0
 25 28  1  0
 28 29  2  0
 29 30  1  0
 30 31  1  0
 30 32  1  0
 30 33  1  0
 19 34  2  0
 34 35  1  0
 34 36  1  0
 14  9  1  0
 15  7  1  0
 29 21  1  0
 36  4  1  0
  1 37  1  0
  1 38  1  0
  1 39  1  0
  2 40  1  0
  3 41  1  0
  3 42  1  0
  3 43  1  0
  5 44  1  0
  5 45  1  0
  6 46  1  0
  6 47  1  0
 10 48  1  0
 11 49  1  0
 12 50  1  0
 13 51  1  0
 16 52  1  0
 16 53  1  0
 22 54  1  0
 24 55  1  0
 24 56  1  0
 24 57  1  0
 26 58  1  0
 26 59  1  0
 27 60  1  0
 28 61  1  0
 31 62  1  0
 31 63  1  0
 31 64  1  0
 32 65  1  0
 32 66  1  0
 32 67  1  0
 33 68  1  0
 33 69  1  0
 33 70  1  0
 35 71  1  0
M  END
$$$$
