
     RDKit          3D

 74 77  0  0  0  0  0  0  0  0999 V2000
    2.1731    2.9754    6.8462 C   0  0  0  0  0  0  0  0  0  0  0  0
    2.5009    3.2817    5.4949 O   0  0  0  0  0  0  0  0  0  0  0  0
    2.6081    2.3289    4.4710 C   0  0  0  0  0  0  0  0  0  0  0  0
    2.9323    2.7701    3.1826 C   0  0  0  0  0  0  0  0  0  0  0  0
    3.0461    1.8598    2.1282 C   0  0  0  0  0  0  0  0  0  0  0  0
    2.8325    0.4940    2.3497 C   0  0  0  0  0  0  0  0  0  0  0  0
    2.9600   -0.6371    1.0037 S   0  0  0  0  0  0  0  0  0  0  0  0
    2.5820   -2.0241    1.4461 O   0  0  0  0  0  0  0  0  0  0  0  0
    4.3888   -0.6601    0.5393 O   0  0  0  0  0  0  0  0  0  0  0  0
    1.9425   -0.1423   -0.3235 N   0  0  0  0  0  0  0  0  0  0  0  0
    0.5736    0.2134    0.0967 C   0  0  0  0  0  0  0  0  0  0  0  0
   -0.2492   -0.9695    0.6926 C   0  0  1  0  0  0  0  0  0  0  0  0
   -0.0131   -1.0629    2.0749 O   0  0  0  0  0  0  0  0  0  0  0  0
   -1.7697   -0.8244    0.3971 C   0  0  2  0  0  0  0  0  0  0  0  0
   -2.6124   -1.9491    1.0436 C   0  0  0  0  0  0  0  0  0  0  0  0
   -2.7860   -1.7802    2.5334 C   0  0  0  0  0  0  0  0  0  0  0  0
   -2.1586   -2.6627    3.4302 C   0  0  0  0  0  0  0  0  0  0  0  0
   -2.3113   -2.4923    4.8095 C   0  0  0  0  0  0  0  0  0  0  0  0
   -3.0951   -1.4465    5.3039 C   0  0  0  0  0  0  0  0  0  0  0  0
   -3.7301   -0.5705    4.4196 C   0  0  0  0  0  0  0  0  0  0  0  0
   -3.5794   -0.7363    3.0394 C   0  0  0  0  0  0  0  0  0  0  0  0
   -1.9888   -0.8703   -1.0541 N   0  0  0  0  0  0  0  0  0  0  0  0
   -2.4696    0.2415   -1.8189 C   0  0  0  0  0  0  0  0  0  0  0  0
   -2.7746    1.3261   -1.2507 O   0  0  0  0  0  0  0  0  0  0  0  0
   -2.5826    0.1137   -3.2069 O   0  0  0  0  0  0  0  0  0  0  0  0
   -2.9307    1.2009   -4.0656 C   0  0  0  0  0  0  0  0  0  0  0  0
   -3.2114    0.6875   -5.4449 C   0  0  0  0  0  0  0  0  0  0  0  0
   -1.8593    0.7636   -6.1263 C   0  0  0  0  0  0  0  0  0  0  0  0
   -1.0279    1.6648   -5.4299 O   0  0  0  0  0  0  0  0  0  0  0  0
   -1.7340    2.1078   -4.2942 C   0  0  0  0  0  0  0  0  0  0  0  0
    1.8890   -1.1671   -1.2190 O   0  0  0  0  0  0  0  0  0  0  0  0
    2.4513   -0.6913   -2.4221 C   0  0  0  0  0  0  0  0  0  0  0  0
    2.9424   -1.8559   -3.2631 C   0  0  0  0  0  0  0  0  0  0  0  0
    2.8791   -1.3661   -4.7010 C   0  0  0  0  0  0  0  0  0  0  0  0
    1.8132   -0.2735   -4.7375 C   0  0  0  0  0  0  0  0  0  0  0  0
    1.4053   -0.0032   -3.2925 C   0  0  0  0  0  0  0  0  0  0  0  0
    2.5176    0.0438    3.6390 C   0  0  0  0  0  0  0  0  0  0  0  0
    2.4021    0.9537    4.6941 C   0  0  0  0  0  0  0  0  0  0  0  0
    2.9377    2.2969    7.2802 H   0  0  0  0  0  0  0  0  0  0  0  0
    2.1552    3.9142    7.4367 H   0  0  0  0  0  0  0  0  0  0  0  0
    1.1692    2.5033    6.8980 H   0  0  0  0  0  0  0  0  0  0  0  0
    3.0945    3.8244    2.9975 H   0  0  0  0  0  0  0  0  0  0  0  0
    3.2924    2.2196    1.1371 H   0  0  0  0  0  0  0  0  0  0  0  0
    0.0592    0.6315   -0.7910 H   0  0  0  0  0  0  0  0  0  0  0  0
    0.6093    1.0587    0.8155 H   0  0  0  0  0  0  0  0  0  0  0  0
    0.0816   -1.9247    0.2326 H   0  0  0  0  0  0  0  0  0  0  0  0
   -0.3548   -0.2310    2.4966 H   0  0  0  0  0  0  0  0  0  0  0  0
   -2.1140    0.1530    0.8010 H   0  0  0  0  0  0  0  0  0  0  0  0
   -2.1609   -2.9380    0.8075 H   0  0  0  0  0  0  0  0  0  0  0  0
   -3.6260   -1.9499    0.5852 H   0  0  0  0  0  0  0  0  0  0  0  0
   -1.5434   -3.4747    3.0627 H   0  0  0  0  0  0  0  0  0  0  0  0
   -1.8206   -3.1707    5.4955 H   0  0  0  0  0  0  0  0  0  0  0  0
   -3.2118   -1.3159    6.3720 H   0  0  0  0  0  0  0  0  0  0  0  0
   -4.3392    0.2376    4.8035 H   0  0  0  0  0  0  0  0  0  0  0  0
   -4.0783   -0.0512    2.3653 H   0  0  0  0  0  0  0  0  0  0  0  0
   -1.7369   -1.7443   -1.5693 H   0  0  0  0  0  0  0  0  0  0  0  0
   -3.8075    1.7550   -3.6610 H   0  0  0  0  0  0  0  0  0  0  0  0
   -3.9313    1.3622   -5.9595 H   0  0  0  0  0  0  0  0  0  0  0  0
   -3.6154   -0.3487   -5.4371 H   0  0  0  0  0  0  0  0  0  0  0  0
   -1.3823   -0.2398   -6.1245 H   0  0  0  0  0  0  0  0  0  0  0  0
   -1.9733    1.0975   -7.1797 H   0  0  0  0  0  0  0  0  0  0  0  0
   -2.0820    3.1485   -4.4733 H   0  0  0  0  0  0  0  0  0  0  0  0
   -1.0575    2.1162   -3.4134 H   0  0  0  0  0  0  0  0  0  0  0  0
    3.3156   -0.0033   -2.2477 H   0  0  0  0  0  0  0  0  0  0  0  0
    2.2630   -2.7295   -3.1413 H   0  0  0  0  0  0  0  0  0  0  0  0
    3.9754   -2.1533   -2.9794 H   0  0  0  0  0  0  0  0  0  0  0  0
    2.6273   -2.1991   -5.3929 H   0  0  0  0  0  0  0  0  0  0  0  0
    3.8643   -0.9396   -4.9928 H   0  0  0  0  0  0  0  0  0  0  0  0
    2.2252    0.6494   -5.2014 H   0  0  0  0  0  0  0  0  0  0  0  0
    0.9349   -0.6093   -5.3295 H   0  0  0  0  0  0  0  0  0  0  0  0
    1.3679    1.0874   -3.0807 H   0  0  0  0  0  0  0  0  0  0  0  0
    0.4005   -0.4439   -3.1050 H   0  0  0  0  0  0  0  0  0  0  0  0
    2.3540   -1.0088    3.8300 H   0  0  0  0  0  0  0  0  0  0  0  0
    2.1519    0.5785    5.6769 H   0  0  0  0  0  0  0  0  0  0  0  0
  1  2  1  0
  2  3  1  0
  3  4  2  0
  4  5  1  0
  5  6  2  0
  6  7  1  0
  7  8  2  0
  7  9  2  0
  7 10  1  0
 10 11  1  0
 11 12  1  0
 12 13  1  0
 12 14  1  0
 14 15  1  0
 15 16  1  0
 16 17  2  0
 17 18  1  0
 18 19  2  0
 19 20  1  0
 20 21  2  0
 14 22  1  0
 22 23  1  0
 23 24  2  0
 23 25  1  0
 25 26  1  0
 26 27  1  0
 27 28  1  0
 28 29  1  0
 29 30  1  0
 10 31  1  0
 31 32  1  0
 32 33  1  0
 33 34  1  0
 34 35  1  0
 35 36  1  0
  6 37  1  0
 37 38  2  0
 21 16  1  0
 30 26  1  0
 36 32  1  0
 38  3  1  0
  1 39  1  0
  1 40  1  0
  1 41  1  0
  4 42  1  0
  5 43  1  0
 11 44  1  0
 11 45  1  0
 12 46  1  6
 13 47  1  0
 14 48  1  1
 15 49  1  0
 15 50  1  0
 17 51  1  0
 18 52  1  0
 19 53  1  0
 20 54  1  0
 21 55  1  0
 22 56  1  0
 26 57  1  0
 27 58  1  0
 27 59  1  0
 28 60  1  0
 28 61  1  0
 30 62  1  0
 30 63  1  0
 32 64  1  0
 33 65  1  0
 33 66  1  0
 34 67  1  0
 34 68  1  0
 35 69  1  0
 35 70  1  0
 36 71  1  0
 36 72  1  0
 37 73  1  0
 38 74  1  0
M  END
$$$$
