
     RDKit          3D

 63 66  0  0  0  0  0  0  0  0999 V2000
   -1.3573   -2.6184   -4.2024 C   0  0  0  0  0  0  0  0  0  0  0  0
   -1.0995   -2.4835   -2.7004 C   0  0  0  0  0  0  0  0  0  0  0  0
   -0.7396   -1.0327   -2.2953 C   0  0  0  0  0  0  0  0  0  0  0  0
    0.6459   -0.6516   -2.7841 C   0  0  0  0  0  0  0  0  0  0  0  0
    0.7919    0.2037   -3.8896 C   0  0  0  0  0  0  0  0  0  0  0  0
    2.0621    0.5280   -4.3692 C   0  0  0  0  0  0  0  0  0  0  0  0
    3.2002    0.0100   -3.7488 C   0  0  0  0  0  0  0  0  0  0  0  0
    3.0796   -0.8342   -2.6363 C   0  0  0  0  0  0  0  0  0  0  0  0
    4.2664   -1.3277   -1.9936 N   0  0  0  0  0  0  0  0  0  0  0  0
    4.3015   -1.8298   -0.3323 S   0  0  0  0  0  0  0  0  0  0  0  0
    3.6459   -3.1772   -0.2110 O   0  0  0  0  0  0  0  0  0  0  0  0
    5.7295   -1.9353    0.1227 O   0  0  0  0  0  0  0  0  0  0  0  0
    3.4742   -0.6434    0.6742 C   0  0  0  0  0  0  0  0  0  0  0  0
    2.7580   -1.0505    1.8084 C   0  0  0  0  0  0  0  0  0  0  0  0
    2.1279   -0.1014    2.6196 C   0  0  0  0  0  0  0  0  0  0  0  0
    2.2021    1.2595    2.2965 C   0  0  0  0  0  0  0  0  0  0  0  0
    1.5751    2.2398    3.1432 C   0  0  0  0  0  0  0  0  0  0  0  0
    1.0733    3.0291    3.8246 N   0  0  0  0  0  0  0  0  0  0  0  0
    2.9077    1.6671    1.1582 C   0  0  0  0  0  0  0  0  0  0  0  0
    3.5473    0.7196    0.3541 C   0  0  0  0  0  0  0  0  0  0  0  0
    1.7975   -1.1757   -2.1708 C   0  0  0  0  0  0  0  0  0  0  0  0
   -0.8980   -0.7144   -0.8004 C   0  0  0  0  0  0  0  0  0  0  0  0
   -1.2029    0.6083   -0.4138 C   0  0  0  0  0  0  0  0  0  0  0  0
   -1.3490    1.5756   -1.4163 O   0  0  0  0  0  0  0  0  0  0  0  0
   -1.3627    0.9291    0.9564 C   0  0  0  0  0  0  0  0  0  0  0  0
   -1.7412    2.3318    1.3922 C   0  0  0  0  0  0  0  0  0  0  0  0
   -3.2539    2.5783    1.2993 C   0  0  0  0  0  0  0  0  0  0  0  0
   -4.1151    1.4992    1.9798 C   0  0  0  0  0  0  0  0  0  0  0  0
   -3.7742    1.2795    3.4688 C   0  0  0  0  0  0  0  0  0  0  0  0
   -2.9914   -0.0201    3.7352 C   0  0  0  0  0  0  0  0  0  0  0  0
   -1.4985    0.0541    3.3789 C   0  0  0  0  0  0  0  0  0  0  0  0
   -1.2450   -0.1198    1.8996 C   0  0  0  0  0  0  0  0  0  0  0  0
   -0.9123   -1.3382    1.4938 O   0  0  0  0  0  0  0  0  0  0  0  0
   -0.7126   -1.6669    0.2269 C   0  0  0  0  0  0  0  0  0  0  0  0
   -0.3598   -2.8468   -0.0297 O   0  0  0  0  0  0  0  0  0  0  0  0
   -2.1926   -1.9565   -4.5151 H   0  0  0  0  0  0  0  0  0  0  0  0
   -0.4453   -2.3576   -4.7795 H   0  0  0  0  0  0  0  0  0  0  0  0
   -1.6330   -3.6679   -4.4380 H   0  0  0  0  0  0  0  0  0  0  0  0
   -2.0218   -2.7994   -2.1654 H   0  0  0  0  0  0  0  0  0  0  0  0
   -0.2785   -3.1833   -2.4351 H   0  0  0  0  0  0  0  0  0  0  0  0
   -1.4885   -0.4001   -2.8224 H   0  0  0  0  0  0  0  0  0  0  0  0
   -0.0778    0.6128   -4.3884 H   0  0  0  0  0  0  0  0  0  0  0  0
    2.1649    1.1843   -5.2238 H   0  0  0  0  0  0  0  0  0  0  0  0
    4.1787    0.2790   -4.1263 H   0  0  0  0  0  0  0  0  0  0  0  0
    5.1857   -1.2283   -2.4796 H   0  0  0  0  0  0  0  0  0  0  0  0
    2.6954   -2.0986    2.0710 H   0  0  0  0  0  0  0  0  0  0  0  0
    1.5883   -0.4280    3.5001 H   0  0  0  0  0  0  0  0  0  0  0  0
    2.9736    2.7170    0.8994 H   0  0  0  0  0  0  0  0  0  0  0  0
    4.1030    1.0497   -0.5141 H   0  0  0  0  0  0  0  0  0  0  0  0
    1.6896   -1.8527   -1.3379 H   0  0  0  0  0  0  0  0  0  0  0  0
   -1.6265    2.5329   -1.2544 H   0  0  0  0  0  0  0  0  0  0  0  0
   -1.3990    2.5550    2.4176 H   0  0  0  0  0  0  0  0  0  0  0  0
   -1.2014    3.0871    0.7862 H   0  0  0  0  0  0  0  0  0  0  0  0
   -3.5490    2.6367    0.2297 H   0  0  0  0  0  0  0  0  0  0  0  0
   -3.4819    3.5666    1.7548 H   0  0  0  0  0  0  0  0  0  0  0  0
   -4.0558    0.5482    1.4070 H   0  0  0  0  0  0  0  0  0  0  0  0
   -5.1740    1.8313    1.9068 H   0  0  0  0  0  0  0  0  0  0  0  0
   -4.7335    1.2009    4.0263 H   0  0  0  0  0  0  0  0  0  0  0  0
   -3.2407    2.1530    3.9023 H   0  0  0  0  0  0  0  0  0  0  0  0
   -3.0618   -0.2304    4.8250 H   0  0  0  0  0  0  0  0  0  0  0  0
   -3.4717   -0.8796    3.2175 H   0  0  0  0  0  0  0  0  0  0  0  0
   -1.0283    0.9666    3.7925 H   0  0  0  0  0  0  0  0  0  0  0  0
   -0.9914   -0.7836    3.9058 H   0  0  0  0  0  0  0  0  0  0  0  0
  1  2  1  0
  2  3  1  0
  3  4  1  0
  4  5  2  0
  5  6  1  0
  6  7  2  0
  7  8  1  0
  8  9  1  0
  9 10  1  0
 10 11  2  0
 10 12  2  0
 10 13  1  0
 13 14  2  0
 14 15  1  0
 15 16  2  0
 16 17  1  0
 17 18  3  0
 16 19  1  0
 19 20  2  0
  8 21  2  0
  3 22  1  0
 22 23  2  0
 23 24  1  0
 23 25  1  0
 25 26  1  0
 26 27  1  0
 27 28  1  0
 28 29  1  0
 29 30  1  0
 30 31  1  0
 31 32  1  0
 32 33  1  0
 33 34  1  0
 34 35  2  0
 20 13  1  0
 21  4  1  0
 32 25  2  0
 34 22  1  0
  1 36  1  0
  1 37  1  0
  1 38  1  0
  2 39  1  0
  2 40  1  0
  3 41  1  0
  5 42  1  0
  6 43  1  0
  7 44  1  0
  9 45  1  0
 14 46  1  0
 15 47  1  0
 19 48  1  0
 20 49  1  0
 21 50  1  0
 24 51  1  0
 26 52  1  0
 26 53  1  0
 27 54  1  0
 27 55  1  0
 28 56  1  0
 28 57  1  0
 29 58  1  0
 29 59  1  0
 30 60  1  0
 30 61  1  0
 31 62  1  0
 31 63  1  0
M  END
$$$$
