
     RDKit          3D

 77 81  0  0  0  0  0  0  0  0999 V2000
   -5.4652   -4.6787    0.4540 C   0  0  0  0  0  0  0  0  0  0  0  0
   -5.6916   -3.7664   -0.7674 C   0  0  0  0  0  0  0  0  0  0  0  0
   -7.0472   -4.1326   -1.4063 C   0  0  0  0  0  0  0  0  0  0  0  0
   -4.5823   -3.9869   -1.8151 C   0  0  0  0  0  0  0  0  0  0  0  0
   -5.7251   -2.3512   -0.3483 N   0  0  0  0  0  0  0  0  0  0  0  0
   -4.6350   -1.6510    0.2808 C   0  0  0  0  0  0  0  0  0  0  0  0
   -3.5473   -2.2404    0.5167 O   0  0  0  0  0  0  0  0  0  0  0  0
   -4.7959   -0.2341    0.6777 C   0  0  0  0  0  0  0  0  0  0  0  0
   -5.9507    0.1295    1.3927 C   0  0  0  0  0  0  0  0  0  0  0  0
   -6.1464    1.4471    1.8082 C   0  0  0  0  0  0  0  0  0  0  0  0
   -5.1948    2.4214    1.5137 C   0  0  0  0  0  0  0  0  0  0  0  0
   -4.0467    2.0836    0.7965 C   0  0  0  0  0  0  0  0  0  0  0  0
   -3.8314    0.7623    0.3637 C   0  0  0  0  0  0  0  0  0  0  0  0
   -2.5841    0.4697   -0.4447 C   0  0  0  0  0  0  0  0  0  0  0  0
   -1.3286    0.4015    0.4494 C   0  0  1  0  0  0  0  0  0  0  0  0
   -1.5118   -0.5406    1.4763 O   0  0  0  0  0  0  0  0  0  0  0  0
   -0.0537    0.0722   -0.3754 C   0  0  2  0  0  0  0  0  0  0  0  0
    0.0396   -1.4385   -0.7275 C   0  0  0  0  0  0  0  0  0  0  0  0
    0.9212   -1.7797   -2.3006 S   0  0  0  0  0  0  0  0  0  0  0  0
    2.4783   -1.0031   -1.8609 C   0  0  0  0  0  0  0  0  0  0  0  0
    2.8164    0.2297   -2.4300 C   0  0  0  0  0  0  0  0  0  0  0  0
    4.0171    0.8568   -2.0919 C   0  0  0  0  0  0  0  0  0  0  0  0
    4.8758    0.2726   -1.1501 C   0  0  0  0  0  0  0  0  0  0  0  0
    6.0571    0.9218   -0.7603 C   0  0  0  0  0  0  0  0  0  0  0  0
    6.8892    0.3443    0.2022 C   0  0  0  0  0  0  0  0  0  0  0  0
    6.5565   -0.8877    0.7717 C   0  0  0  0  0  0  0  0  0  0  0  0
    5.3889   -1.5511    0.3829 C   0  0  0  0  0  0  0  0  0  0  0  0
    4.5395   -0.9779   -0.5758 C   0  0  0  0  0  0  0  0  0  0  0  0
    3.3531   -1.6226   -0.9595 C   0  0  0  0  0  0  0  0  0  0  0  0
    1.1335    0.4899    0.3838 N   0  0  0  0  0  0  0  0  0  0  0  0
    1.5594    1.8596    0.4703 C   0  0  0  0  0  0  0  0  0  0  0  0
    0.8441    2.7725   -0.0245 O   0  0  0  0  0  0  0  0  0  0  0  0
    2.8217    2.2036    1.1718 C   0  0  0  0  0  0  0  0  0  0  0  0
    3.1024    1.5564    2.3867 C   0  0  0  0  0  0  0  0  0  0  0  0
    4.2733    1.8463    3.0833 C   0  0  0  0  0  0  0  0  0  0  0  0
    5.1501    2.7573    2.5955 N   0  0  0  0  0  0  0  0  0  0  0  0
    4.9292    3.4106    1.4255 C   0  0  0  0  0  0  0  0  0  0  0  0
    5.8815    4.3248    0.9614 C   0  0  0  0  0  0  0  0  0  0  0  0
    5.6914    4.9798   -0.2553 C   0  0  0  0  0  0  0  0  0  0  0  0
    4.5524    4.7213   -1.0178 C   0  0  0  0  0  0  0  0  0  0  0  0
    3.5905    3.8140   -0.5652 C   0  0  0  0  0  0  0  0  0  0  0  0
    3.7548    3.1512    0.6709 C   0  0  0  0  0  0  0  0  0  0  0  0
   -6.2251   -4.4681    1.2369 H   0  0  0  0  0  0  0  0  0  0  0  0
   -4.4591   -4.5277    0.8950 H   0  0  0  0  0  0  0  0  0  0  0  0
   -5.5454   -5.7485    0.1631 H   0  0  0  0  0  0  0  0  0  0  0  0
   -7.2439   -3.4924   -2.2934 H   0  0  0  0  0  0  0  0  0  0  0  0
   -7.8730   -3.9806   -0.6779 H   0  0  0  0  0  0  0  0  0  0  0  0
   -7.0599   -5.1953   -1.7326 H   0  0  0  0  0  0  0  0  0  0  0  0
   -4.6245   -5.0223   -2.2171 H   0  0  0  0  0  0  0  0  0  0  0  0
   -3.5731   -3.8398   -1.3799 H   0  0  0  0  0  0  0  0  0  0  0  0
   -4.7051   -3.2755   -2.6599 H   0  0  0  0  0  0  0  0  0  0  0  0
   -6.5895   -1.7959   -0.5449 H   0  0  0  0  0  0  0  0  0  0  0  0
   -6.6963   -0.6143    1.6470 H   0  0  0  0  0  0  0  0  0  0  0  0
   -7.0366    1.7121    2.3640 H   0  0  0  0  0  0  0  0  0  0  0  0
   -5.3487    3.4425    1.8383 H   0  0  0  0  0  0  0  0  0  0  0  0
   -3.3244    2.8582    0.5689 H   0  0  0  0  0  0  0  0  0  0  0  0
   -2.7060   -0.4525   -1.0453 H   0  0  0  0  0  0  0  0  0  0  0  0
   -2.4474    1.2856   -1.1885 H   0  0  0  0  0  0  0  0  0  0  0  0
   -1.2101    1.4123    0.9045 H   0  0  0  0  0  0  0  0  0  0  0  0
   -0.8309   -0.3443    2.1717 H   0  0  0  0  0  0  0  0  0  0  0  0
   -0.0862    0.6485   -1.3271 H   0  0  0  0  0  0  0  0  0  0  0  0
    0.5168   -2.0127    0.0950 H   0  0  0  0  0  0  0  0  0  0  0  0
   -0.9724   -1.8725   -0.8508 H   0  0  0  0  0  0  0  0  0  0  0  0
    2.1469    0.7046   -3.1358 H   0  0  0  0  0  0  0  0  0  0  0  0
    4.2642    1.8065   -2.5504 H   0  0  0  0  0  0  0  0  0  0  0  0
    6.3277    1.8801   -1.1874 H   0  0  0  0  0  0  0  0  0  0  0  0
    7.7933    0.8542    0.5088 H   0  0  0  0  0  0  0  0  0  0  0  0
    7.2051   -1.3296    1.5170 H   0  0  0  0  0  0  0  0  0  0  0  0
    5.1461   -2.5045    0.8366 H   0  0  0  0  0  0  0  0  0  0  0  0
    3.0851   -2.5798   -0.5282 H   0  0  0  0  0  0  0  0  0  0  0  0
    1.7281   -0.2381    0.8390 H   0  0  0  0  0  0  0  0  0  0  0  0
    2.4078    0.8417    2.8104 H   0  0  0  0  0  0  0  0  0  0  0  0
    4.4833    1.3480    4.0202 H   0  0  0  0  0  0  0  0  0  0  0  0
    6.7764    4.5211    1.5391 H   0  0  0  0  0  0  0  0  0  0  0  0
    6.4337    5.6814   -0.6133 H   0  0  0  0  0  0  0  0  0  0  0  0
    4.4180    5.2192   -1.9694 H   0  0  0  0  0  0  0  0  0  0  0  0
    2.7463    3.6209   -1.2094 H   0  0  0  0  0  0  0  0  0  0  0  0
  1  2  1  0
  2  3  1  0
  2  4  1  0
  2  5  1  0
  5  6  1  0
  6  7  2  0
  6  8  1  0
  8  9  2  0
  9 10  1  0
 10 11  2  0
 11 12  1  0
 12 13  2  0
 13 14  1  0
 14 15  1  0
 15 16  1  0
 15 17  1  0
 17 18  1  0
 18 19  1  0
 19 20  1  0
 20 21  2  0
 21 22  1  0
 22 23  2  0
 23 24  1  0
 24 25  2  0
 25 26  1  0
 26 27  2  0
 27 28  1  0
 28 29  2  0
 17 30  1  0
 30 31  1  0
 31 32  2  0
 31 33  1  0
 33 34  2  0
 34 35  1  0
 35 36  2  0
 36 37  1  0
 37 38  2  0
 38 39  1  0
 39 40  2  0
 40 41  1  0
 41 42  2  0
 13  8  1  0
 28 23  1  0
 29 20  1  0
 42 33  1  0
 42 37  1  0
  1 43  1  0
  1 44  1  0
  1 45  1  0
  3 46  1  0
  3 47  1  0
  3 48  1  0
  4 49  1  0
  4 50  1  0
  4 51  1  0
  5 52  1  0
  9 53  1  0
 10 54  1  0
 11 55  1  0
 12 56  1  0
 14 57  1  0
 14 58  1  0
 15 59  1  1
 16 60  1  0
 17 61  1  6
 18 62  1  0
 18 63  1  0
 21 64  1  0
 22 65  1  0
 24 66  1  0
 25 67  1  0
 26 68  1  0
 27 69  1  0
 29 70  1  0
 30 71  1  0
 34 72  1  0
 35 73  1  0
 38 74  1  0
 39 75  1  0
 40 76  1  0
 41 77  1  0
M  END
$$$$
