
     RDKit          3D

 84 87  0  0  0  0  0  0  0  0999 V2000
   -5.1763    3.4722   -1.8896 C   0  0  0  0  0  0  0  0  0  0  0  0
   -5.1621    1.9479   -2.0977 C   0  0  0  0  0  0  0  0  0  0  0  0
   -4.0614    1.5667   -3.1036 C   0  0  0  0  0  0  0  0  0  0  0  0
   -5.0867    1.2076   -0.7211 C   0  0  0  0  0  0  0  0  0  0  0  0
   -3.9132    1.6249    0.0636 N   0  0  0  0  0  0  0  0  0  0  0  0
   -3.9203    1.6594    1.5003 C   0  0  0  0  0  0  0  0  0  0  0  0
   -4.9355    1.2686    2.1393 O   0  0  0  0  0  0  0  0  0  0  0  0
   -2.7519    2.2355    2.2483 C   0  0  0  0  0  0  0  0  0  0  0  0
   -2.4075    1.3835    3.4803 C   0  0  2  0  0  0  0  0  0  0  0  0
   -1.1364    1.7270    3.9869 O   0  0  0  0  0  0  0  0  0  0  0  0
   -1.2741    0.4104    3.5012 C   0  0  2  0  0  0  0  0  0  0  0  0
   -0.3870    0.1635    2.2680 C   0  0  2  0  0  0  0  0  0  0  0  0
   -1.1067   -0.7917    1.2995 C   0  0  0  0  0  0  0  0  0  0  0  0
   -0.3388   -0.9681    0.0125 C   0  0  0  0  0  0  0  0  0  0  0  0
   -0.2755    0.0792   -0.9230 C   0  0  0  0  0  0  0  0  0  0  0  0
    0.4078   -0.0933   -2.1301 C   0  0  0  0  0  0  0  0  0  0  0  0
    1.0317   -1.3106   -2.4131 C   0  0  0  0  0  0  0  0  0  0  0  0
    0.9880   -2.3516   -1.4822 C   0  0  0  0  0  0  0  0  0  0  0  0
    0.3105   -2.1817   -0.2709 C   0  0  0  0  0  0  0  0  0  0  0  0
    0.8836   -0.4226    2.7062 N   0  0  0  0  0  0  0  0  0  0  0  0
    1.9584    0.3768    3.2198 C   0  0  0  0  0  0  0  0  0  0  0  0
    1.7934    1.6138    3.4085 O   0  0  0  0  0  0  0  0  0  0  0  0
    3.3095   -0.2538    3.4324 C   0  0  0  0  0  0  0  0  0  0  0  0
    4.1996    0.5775    4.3744 C   0  0  0  0  0  0  0  0  0  0  0  0
    5.4825   -0.1406    4.6758 C   0  0  0  0  0  0  0  0  0  0  0  0
    6.6321    0.0534    3.8520 N   0  0  0  0  0  0  0  0  0  0  0  0
    5.5343   -0.9513    5.6389 O   0  0  0  0  0  0  0  0  0  0  0  0
    3.9569   -0.4109    2.1279 N   0  0  0  0  0  0  0  0  0  0  0  0
    3.9964   -1.6666    1.4317 C   0  0  0  0  0  0  0  0  0  0  0  0
    3.8428   -2.7442    2.0693 O   0  0  0  0  0  0  0  0  0  0  0  0
    4.2086   -1.7021   -0.0297 C   0  0  0  0  0  0  0  0  0  0  0  0
    4.4249   -2.9170   -0.7017 C   0  0  0  0  0  0  0  0  0  0  0  0
    4.5929   -2.9209   -2.0880 C   0  0  0  0  0  0  0  0  0  0  0  0
    4.5378   -1.7177   -2.8002 C   0  0  0  0  0  0  0  0  0  0  0  0
    4.6813   -1.6877   -4.1952 C   0  0  0  0  0  0  0  0  0  0  0  0
    4.6028   -0.4699   -4.8787 C   0  0  0  0  0  0  0  0  0  0  0  0
    4.3830    0.7193   -4.1757 C   0  0  0  0  0  0  0  0  0  0  0  0
    4.2418    0.6981   -2.7847 C   0  0  0  0  0  0  0  0  0  0  0  0
    4.3184   -0.5156   -2.0926 C   0  0  0  0  0  0  0  0  0  0  0  0
    4.1624   -0.5426   -0.7427 N   0  0  0  0  0  0  0  0  0  0  0  0
   -5.2026   -0.3492   -0.7533 C   0  0  0  0  0  0  0  0  0  0  0  0
   -6.4847   -0.8282   -1.4486 C   0  0  0  0  0  0  0  0  0  0  0  0
   -3.9699   -1.0821   -1.3155 C   0  0  0  0  0  0  0  0  0  0  0  0
   -4.1982    3.8316   -1.5056 H   0  0  0  0  0  0  0  0  0  0  0  0
   -5.3880    3.9887   -2.8503 H   0  0  0  0  0  0  0  0  0  0  0  0
   -5.9722    3.7585   -1.1695 H   0  0  0  0  0  0  0  0  0  0  0  0
   -6.1373    1.6980   -2.5693 H   0  0  0  0  0  0  0  0  0  0  0  0
   -4.0353    2.2931   -3.9438 H   0  0  0  0  0  0  0  0  0  0  0  0
   -3.0562    1.5468   -2.6372 H   0  0  0  0  0  0  0  0  0  0  0  0
   -4.2812    0.5831   -3.5599 H   0  0  0  0  0  0  0  0  0  0  0  0
   -5.9900    1.5572   -0.1700 H   0  0  0  0  0  0  0  0  0  0  0  0
   -3.0579    1.9646   -0.4277 H   0  0  0  0  0  0  0  0  0  0  0  0
   -3.0400    3.2477    2.6021 H   0  0  0  0  0  0  0  0  0  0  0  0
   -1.8922    2.3775    1.5671 H   0  0  0  0  0  0  0  0  0  0  0  0
   -3.1496    1.3141    4.3036 H   0  0  0  0  0  0  0  0  0  0  0  0
   -1.2753   -0.3328    4.3267 H   0  0  0  0  0  0  0  0  0  0  0  0
   -0.1628    1.1104    1.7344 H   0  0  0  0  0  0  0  0  0  0  0  0
   -1.2726   -1.7740    1.7951 H   0  0  0  0  0  0  0  0  0  0  0  0
   -2.1106   -0.3905    1.0574 H   0  0  0  0  0  0  0  0  0  0  0  0
   -0.7640    1.0239   -0.7215 H   0  0  0  0  0  0  0  0  0  0  0  0
    0.4488    0.7148   -2.8489 H   0  0  0  0  0  0  0  0  0  0  0  0
    1.5545   -1.4448   -3.3511 H   0  0  0  0  0  0  0  0  0  0  0  0
    1.4789   -3.2912   -1.6996 H   0  0  0  0  0  0  0  0  0  0  0  0
    0.2844   -2.9987    0.4391 H   0  0  0  0  0  0  0  0  0  0  0  0
    1.0506   -1.4468    2.5770 H   0  0  0  0  0  0  0  0  0  0  0  0
    3.1475   -1.2452    3.9108 H   0  0  0  0  0  0  0  0  0  0  0  0
    4.4269    1.5659    3.9183 H   0  0  0  0  0  0  0  0  0  0  0  0
    3.6594    0.7626    5.3291 H   0  0  0  0  0  0  0  0  0  0  0  0
    7.5176   -0.4617    4.0537 H   0  0  0  0  0  0  0  0  0  0  0  0
    6.6008    0.7055    3.0372 H   0  0  0  0  0  0  0  0  0  0  0  0
    4.2473    0.4570    1.6224 H   0  0  0  0  0  0  0  0  0  0  0  0
    4.4607   -3.8548   -0.1618 H   0  0  0  0  0  0  0  0  0  0  0  0
    4.7556   -3.8609   -2.6016 H   0  0  0  0  0  0  0  0  0  0  0  0
    4.8477   -2.6011   -4.7536 H   0  0  0  0  0  0  0  0  0  0  0  0
    4.7106   -0.4477   -5.9555 H   0  0  0  0  0  0  0  0  0  0  0  0
    4.3207    1.6584   -4.7100 H   0  0  0  0  0  0  0  0  0  0  0  0
    4.0671    1.6227   -2.2486 H   0  0  0  0  0  0  0  0  0  0  0  0
   -5.2931   -0.6705    0.3086 H   0  0  0  0  0  0  0  0  0  0  0  0
   -7.3715   -0.3122   -1.0231 H   0  0  0  0  0  0  0  0  0  0  0  0
   -6.4427   -0.6351   -2.5411 H   0  0  0  0  0  0  0  0  0  0  0  0
   -6.6128   -1.9209   -1.2930 H   0  0  0  0  0  0  0  0  0  0  0  0
   -3.8609   -2.0669   -0.8130 H   0  0  0  0  0  0  0  0  0  0  0  0
   -4.0647   -1.2838   -2.4010 H   0  0  0  0  0  0  0  0  0  0  0  0
   -3.0406   -0.5084   -1.1425 H   0  0  0  0  0  0  0  0  0  0  0  0
  1  2  1  0
  2  3  1  0
  2  4  1  0
  4  5  1  0
  5  6  1  0
  6  7  2  0
  6  8  1  0
  8  9  1  0
  9 10  1  0
 10 11  1  0
 11 12  1  0
 12 13  1  0
 13 14  1  0
 14 15  2  0
 15 16  1  0
 16 17  2  0
 17 18  1  0
 18 19  2  0
 12 20  1  0
 20 21  1  0
 21 22  2  0
 21 23  1  0
 23 24  1  0
 24 25  1  0
 25 26  1  0
 25 27  2  0
 23 28  1  0
 28 29  1  0
 29 30  2  0
 29 31  1  0
 31 32  2  0
 32 33  1  0
 33 34  2  0
 34 35  1  0
 35 36  2  0
 36 37  1  0
 37 38  2  0
 38 39  1  0
 39 40  2  0
  4 41  1  0
 41 42  1  0
 41 43  1  0
 11  9  1  0
 19 14  1  0
 39 34  1  0
 40 31  1  0
  1 44  1  0
  1 45  1  0
  1 46  1  0
  2 47  1  0
  3 48  1  0
  3 49  1  0
  3 50  1  0
  4 51  1  0
  5 52  1  0
  8 53  1  0
  8 54  1  0
  9 55  1  1
 11 56  1  1
 12 57  1  6
 13 58  1  0
 13 59  1  0
 15 60  1  0
 16 61  1  0
 17 62  1  0
 18 63  1  0
 19 64  1  0
 20 65  1  0
 23 66  1  0
 24 67  1  0
 24 68  1  0
 26 69  1  0
 26 70  1  0
 28 71  1  0
 32 72  1  0
 33 73  1  0
 35 74  1  0
 36 75  1  0
 37 76  1  0
 38 77  1  0
 41 78  1  0
 42 79  1  0
 42 80  1  0
 42 81  1  0
 43 82  1  0
 43 83  1  0
 43 84  1  0
M  END
$$$$
