
     RDKit          3D

 77 80  0  0  0  0  0  0  0  0999 V2000
   -6.3012    1.2655    1.0626 C   0  0  0  0  0  0  0  0  0  0  0  0
   -5.3128    2.4073    1.0378 C   0  0  0  0  0  0  0  0  0  0  0  0
   -5.7786    3.7346    1.1691 C   0  0  0  0  0  0  0  0  0  0  0  0
   -7.1380    3.9909    1.3519 O   0  0  0  0  0  0  0  0  0  0  0  0
   -4.8770    4.8046    1.1156 C   0  0  0  0  0  0  0  0  0  0  0  0
   -3.5154    4.5701    0.9434 C   0  0  0  0  0  0  0  0  0  0  0  0
   -3.0378    3.2653    0.8378 C   0  0  0  0  0  0  0  0  0  0  0  0
   -3.9180    2.1709    0.8962 C   0  0  0  0  0  0  0  0  0  0  0  0
   -3.3495    0.8028    0.8285 C   0  0  0  0  0  0  0  0  0  0  0  0
   -3.8034   -0.1015    1.5814 O   0  0  0  0  0  0  0  0  0  0  0  0
   -2.2713    0.5102   -0.0746 N   0  0  0  0  0  0  0  0  0  0  0  0
   -1.6594   -0.8182   -0.1725 C   0  0  2  0  0  0  0  0  0  0  0  0
   -0.1299   -0.6899   -0.3475 C   0  0  0  0  0  0  0  0  0  0  0  0
    0.5567    0.0307    0.8382 C   0  0  2  0  0  0  0  0  0  0  0  0
    0.2427    1.4023    0.8550 O   0  0  0  0  0  0  0  0  0  0  0  0
    2.0950   -0.1935    0.8390 C   0  0  2  0  0  0  0  0  0  0  0  0
    2.8011    0.5566    1.9876 C   0  0  0  0  0  0  0  0  0  0  0  0
    2.3634    0.0634    3.3437 C   0  0  0  0  0  0  0  0  0  0  0  0
    2.8692   -1.1442    3.8533 C   0  0  0  0  0  0  0  0  0  0  0  0
    2.4409   -1.6183    5.0971 C   0  0  0  0  0  0  0  0  0  0  0  0
    1.5027   -0.8941    5.8376 C   0  0  0  0  0  0  0  0  0  0  0  0
    0.9903    0.3050    5.3351 C   0  0  0  0  0  0  0  0  0  0  0  0
    1.4164    0.7833    4.0923 C   0  0  0  0  0  0  0  0  0  0  0  0
    2.6802    0.2265   -0.4397 N   0  0  0  0  0  0  0  0  0  0  0  0
    3.0315   -0.6999   -1.4807 C   0  0  0  0  0  0  0  0  0  0  0  0
    2.8750   -1.9397   -1.3101 O   0  0  0  0  0  0  0  0  0  0  0  0
    3.5154   -0.2074   -2.7872 C   0  0  0  0  0  0  0  0  0  0  0  0
    2.8832   -0.6909   -3.9437 C   0  0  0  0  0  0  0  0  0  0  0  0
    3.2446   -0.2149   -5.2017 C   0  0  0  0  0  0  0  0  0  0  0  0
    4.2326    0.7588   -5.3225 C   0  0  0  0  0  0  0  0  0  0  0  0
    4.8894    1.2506   -4.1905 C   0  0  0  0  0  0  0  0  0  0  0  0
    5.8503    2.2477   -4.3771 O   0  0  0  0  0  0  0  0  0  0  0  0
    4.5684    0.7406   -2.9067 C   0  0  0  0  0  0  0  0  0  0  0  0
    5.3620    1.1916   -1.7020 C   0  0  0  0  0  0  0  0  0  0  0  0
   -2.3031   -1.5728   -1.3524 C   0  0  0  0  0  0  0  0  0  0  0  0
   -1.8367   -3.0042   -1.4404 C   0  0  0  0  0  0  0  0  0  0  0  0
   -0.8483   -3.3752   -2.3687 C   0  0  0  0  0  0  0  0  0  0  0  0
   -0.3937   -4.6961   -2.4228 C   0  0  0  0  0  0  0  0  0  0  0  0
   -0.9198   -5.6542   -1.5519 C   0  0  0  0  0  0  0  0  0  0  0  0
   -1.8997   -5.2922   -0.6233 C   0  0  0  0  0  0  0  0  0  0  0  0
   -2.3559   -3.9718   -0.5643 C   0  0  0  0  0  0  0  0  0  0  0  0
   -6.3135    0.8056    2.0727 H   0  0  0  0  0  0  0  0  0  0  0  0
   -7.3293    1.6016    0.8144 H   0  0  0  0  0  0  0  0  0  0  0  0
   -6.0288    0.4984    0.3075 H   0  0  0  0  0  0  0  0  0  0  0  0
   -7.4939    4.9349    1.4481 H   0  0  0  0  0  0  0  0  0  0  0  0
   -5.2333    5.8227    1.2092 H   0  0  0  0  0  0  0  0  0  0  0  0
   -2.8248    5.4028    0.9052 H   0  0  0  0  0  0  0  0  0  0  0  0
   -1.9710    3.1109    0.7360 H   0  0  0  0  0  0  0  0  0  0  0  0
   -2.0244    1.2189   -0.8026 H   0  0  0  0  0  0  0  0  0  0  0  0
   -1.8485   -1.3925    0.7619 H   0  0  0  0  0  0  0  0  0  0  0  0
    0.2990   -1.7119   -0.4178 H   0  0  0  0  0  0  0  0  0  0  0  0
    0.0970   -0.1638   -1.3009 H   0  0  0  0  0  0  0  0  0  0  0  0
    0.1559   -0.4172    1.7733 H   0  0  0  0  0  0  0  0  0  0  0  0
    0.5139    1.7882   -0.0177 H   0  0  0  0  0  0  0  0  0  0  0  0
    2.2834   -1.2795    0.9934 H   0  0  0  0  0  0  0  0  0  0  0  0
    2.6245    1.6509    1.8964 H   0  0  0  0  0  0  0  0  0  0  0  0
    3.8994    0.4077    1.8926 H   0  0  0  0  0  0  0  0  0  0  0  0
    3.5916   -1.7180    3.2859 H   0  0  0  0  0  0  0  0  0  0  0  0
    2.8344   -2.5488    5.4856 H   0  0  0  0  0  0  0  0  0  0  0  0
    1.1710   -1.2633    6.7995 H   0  0  0  0  0  0  0  0  0  0  0  0
    0.2604    0.8628    5.9075 H   0  0  0  0  0  0  0  0  0  0  0  0
    1.0043    1.7095    3.7115 H   0  0  0  0  0  0  0  0  0  0  0  0
    2.7289    1.2492   -0.6495 H   0  0  0  0  0  0  0  0  0  0  0  0
    2.0877   -1.4233   -3.8693 H   0  0  0  0  0  0  0  0  0  0  0  0
    2.7427   -0.5878   -6.0853 H   0  0  0  0  0  0  0  0  0  0  0  0
    4.4885    1.1393   -6.3034 H   0  0  0  0  0  0  0  0  0  0  0  0
    6.3178    2.7208   -3.6150 H   0  0  0  0  0  0  0  0  0  0  0  0
    6.4463    1.2066   -1.9381 H   0  0  0  0  0  0  0  0  0  0  0  0
    5.2551    0.4996   -0.8426 H   0  0  0  0  0  0  0  0  0  0  0  0
    5.0345    2.2070   -1.3959 H   0  0  0  0  0  0  0  0  0  0  0  0
   -2.0882   -1.0359   -2.3029 H   0  0  0  0  0  0  0  0  0  0  0  0
   -3.4083   -1.5667   -1.2271 H   0  0  0  0  0  0  0  0  0  0  0  0
   -0.4234   -2.6406   -3.0417 H   0  0  0  0  0  0  0  0  0  0  0  0
    0.3691   -4.9762   -3.1377 H   0  0  0  0  0  0  0  0  0  0  0  0
   -0.5662   -6.6763   -1.5946 H   0  0  0  0  0  0  0  0  0  0  0  0
   -2.3034   -6.0343    0.0533 H   0  0  0  0  0  0  0  0  0  0  0  0
   -3.1098   -3.7016    0.1648 H   0  0  0  0  0  0  0  0  0  0  0  0
  1  2  1  0
  2  3  2  0
  3  4  1  0
  3  5  1  0
  5  6  2  0
  6  7  1  0
  7  8  2  0
  8  9  1  0
  9 10  2  0
  9 11  1  0
 11 12  1  0
 12 13  1  0
 13 14  1  0
 14 15  1  0
 14 16  1  0
 16 17  1  0
 17 18  1  0
 18 19  2  0
 19 20  1  0
 20 21  2  0
 21 22  1  0
 22 23  2  0
 16 24  1  0
 24 25  1  0
 25 26  2  0
 25 27  1  0
 27 28  2  0
 28 29  1  0
 29 30  2  0
 30 31  1  0
 31 32  1  0
 31 33  2  0
 33 34  1  0
 12 35  1  0
 35 36  1  0
 36 37  2  0
 37 38  1  0
 38 39  2  0
 39 40  1  0
 40 41  2  0
  8  2  1  0
 23 18  1  0
 33 27  1  0
 41 36  1  0
  1 42  1  0
  1 43  1  0
  1 44  1  0
  4 45  1  0
  5 46  1  0
  6 47  1  0
  7 48  1  0
 11 49  1  0
 12 50  1  1
 13 51  1  0
 13 52  1  0
 14 53  1  1
 15 54  1  0
 16 55  1  1
 17 56  1  0
 17 57  1  0
 19 58  1  0
 20 59  1  0
 21 60  1  0
 22 61  1  0
 23 62  1  0
 24 63  1  0
 28 64  1  0
 29 65  1  0
 30 66  1  0
 32 67  1  0
 34 68  1  0
 34 69  1  0
 34 70  1  0
 35 71  1  0
 35 72  1  0
 37 73  1  0
 38 74  1  0
 39 75  1  0
 40 76  1  0
 41 77  1  0
M  END
$$$$
