
     RDKit          3D

 71 74  0  0  0  0  0  0  0  0999 V2000
    2.9448   -4.1776    0.2430 C   0  0  0  0  0  0  0  0  0  0  0  0
    1.9804   -3.3199    1.0862 C   0  0  0  0  0  0  0  0  0  0  0  0
    2.5537   -3.1612    2.5083 C   0  0  0  0  0  0  0  0  0  0  0  0
    1.5977   -1.9387    0.4223 C   0  0  0  0  0  0  0  0  0  0  0  0
    2.8686   -1.1738   -0.0583 C   0  0  0  0  0  0  0  0  0  0  0  0
    2.6395    0.3259   -0.3199 C   0  0  0  0  0  0  0  0  0  0  0  0
    3.9108    0.9732   -0.7679 C   0  0  0  0  0  0  0  0  0  0  0  0
    4.3029    1.0182   -2.0652 N   0  0  0  0  0  0  0  0  0  0  0  0
    5.5214    1.6042   -2.1831 C   0  0  0  0  0  0  0  0  0  0  0  0
    6.1888    1.8004   -3.3934 C   0  0  0  0  0  0  0  0  0  0  0  0
    7.4523    2.4164   -3.3755 C   0  0  0  0  0  0  0  0  0  0  0  0
    8.0307    2.8245   -2.1567 C   0  0  0  0  0  0  0  0  0  0  0  0
    7.3510    2.6202   -0.9452 C   0  0  0  0  0  0  0  0  0  0  0  0
    6.1003    2.0096   -0.9906 C   0  0  0  0  0  0  0  0  0  0  0  0
    5.0700    1.6318    0.2786 S   0  0  0  0  0  0  0  0  0  0  0  0
    0.6328   -2.1634   -0.7767 C   0  0  0  0  0  0  0  0  0  0  0  0
   -0.7174   -2.5801   -0.2810 C   0  0  0  0  0  0  0  0  0  0  0  0
   -1.3779   -3.4500   -0.9094 O   0  0  0  0  0  0  0  0  0  0  0  0
   -1.2717   -1.9429    0.9273 C   0  0  0  0  0  0  0  0  0  0  0  0
   -3.0494   -2.0728    1.2474 S   0  0  0  0  0  0  0  0  0  0  0  0
   -3.4928   -0.5942    0.2968 C   0  0  0  0  0  0  0  0  0  0  0  0
   -3.3081   -0.6954   -1.0904 C   0  0  0  0  0  0  0  0  0  0  0  0
   -3.3354    0.4284   -1.9205 C   0  0  0  0  0  0  0  0  0  0  0  0
   -3.0661    0.2580   -3.3934 C   0  0  0  0  0  0  0  0  0  0  0  0
   -3.5224    1.6983   -1.3439 C   0  0  0  0  0  0  0  0  0  0  0  0
   -3.4911    2.9597   -2.1714 C   0  0  0  0  0  0  0  0  0  0  0  0
   -4.7362    3.1447   -2.7841 O   0  0  0  0  0  0  0  0  0  0  0  0
   -3.8372    1.7902    0.0189 C   0  0  0  0  0  0  0  0  0  0  0  0
   -3.9276    0.6510    0.8565 C   0  0  0  0  0  0  0  0  0  0  0  0
   -4.5666    0.8598    2.2628 C   0  0  0  0  0  0  0  0  0  0  0  0
   -5.9173    1.6127    2.1075 C   0  0  0  0  0  0  0  0  0  0  0  0
   -3.6247    1.7146    3.1357 C   0  0  0  0  0  0  0  0  0  0  0  0
   -4.9055   -0.4412    3.0283 C   0  0  0  0  0  0  0  0  0  0  0  0
   -0.4319   -1.2755    1.7422 C   0  0  0  0  0  0  0  0  0  0  0  0
   -0.8577   -0.7141    2.9431 O   0  0  0  0  0  0  0  0  0  0  0  0
    0.9234   -1.1328    1.4027 O   0  0  0  0  0  0  0  0  0  0  0  0
    2.5488   -4.3555   -0.7756 H   0  0  0  0  0  0  0  0  0  0  0  0
    3.0785   -5.1723    0.7195 H   0  0  0  0  0  0  0  0  0  0  0  0
    3.9440   -3.7002    0.1653 H   0  0  0  0  0  0  0  0  0  0  0  0
    1.0497   -3.9170    1.2059 H   0  0  0  0  0  0  0  0  0  0  0  0
    2.7409   -4.1610    2.9556 H   0  0  0  0  0  0  0  0  0  0  0  0
    1.8336   -2.6379    3.1710 H   0  0  0  0  0  0  0  0  0  0  0  0
    3.5117   -2.6029    2.5035 H   0  0  0  0  0  0  0  0  0  0  0  0
    3.6675   -1.2544    0.7076 H   0  0  0  0  0  0  0  0  0  0  0  0
    3.2564   -1.6451   -0.9888 H   0  0  0  0  0  0  0  0  0  0  0  0
    1.8726    0.4826   -1.1046 H   0  0  0  0  0  0  0  0  0  0  0  0
    2.2927    0.8294    0.6075 H   0  0  0  0  0  0  0  0  0  0  0  0
    5.7442    1.4850   -4.3286 H   0  0  0  0  0  0  0  0  0  0  0  0
    7.9848    2.5774   -4.3038 H   0  0  0  0  0  0  0  0  0  0  0  0
    9.0044    3.2968   -2.1541 H   0  0  0  0  0  0  0  0  0  0  0  0
    7.7876    2.9280   -0.0041 H   0  0  0  0  0  0  0  0  0  0  0  0
    0.4834   -1.2246   -1.3459 H   0  0  0  0  0  0  0  0  0  0  0  0
    1.0301   -2.9111   -1.4922 H   0  0  0  0  0  0  0  0  0  0  0  0
   -3.0915   -1.6612   -1.5252 H   0  0  0  0  0  0  0  0  0  0  0  0
   -3.7868    0.8544   -3.9907 H   0  0  0  0  0  0  0  0  0  0  0  0
   -3.1740   -0.8025   -3.7062 H   0  0  0  0  0  0  0  0  0  0  0  0
   -2.0315    0.5886   -3.6231 H   0  0  0  0  0  0  0  0  0  0  0  0
   -3.2566    3.8386   -1.5295 H   0  0  0  0  0  0  0  0  0  0  0  0
   -2.6903    2.8990   -2.9408 H   0  0  0  0  0  0  0  0  0  0  0  0
   -4.6565    3.9723   -3.3260 H   0  0  0  0  0  0  0  0  0  0  0  0
   -4.0390    2.7735    0.4198 H   0  0  0  0  0  0  0  0  0  0  0  0
   -6.4402    1.7097    3.0840 H   0  0  0  0  0  0  0  0  0  0  0  0
   -6.5859    1.0642    1.4088 H   0  0  0  0  0  0  0  0  0  0  0  0
   -5.7900    2.6471    1.7303 H   0  0  0  0  0  0  0  0  0  0  0  0
   -4.0365    1.8329    4.1615 H   0  0  0  0  0  0  0  0  0  0  0  0
   -3.4882    2.7302    2.7084 H   0  0  0  0  0  0  0  0  0  0  0  0
   -2.6254    1.2439    3.2118 H   0  0  0  0  0  0  0  0  0  0  0  0
   -4.0026   -0.9278    3.4384 H   0  0  0  0  0  0  0  0  0  0  0  0
   -5.5385   -0.2287    3.9173 H   0  0  0  0  0  0  0  0  0  0  0  0
   -5.4720   -1.1447    2.3813 H   0  0  0  0  0  0  0  0  0  0  0  0
   -1.7577   -0.9156    3.3520 H   0  0  0  0  0  0  0  0  0  0  0  0
  1  2  1  0
  2  3  1  0
  2  4  1  0
  4  5  1  0
  5  6  1  0
  6  7  1  0
  7  8  2  0
  8  9  1  0
  9 10  2  0
 10 11  1  0
 11 12  2  0
 12 13  1  0
 13 14  2  0
 14 15  1  0
  4 16  1  0
 16 17  1  0
 17 18  2  0
 17 19  1  0
 19 20  1  0
 20 21  1  0
 21 22  2  0
 22 23  1  0
 23 24  1  0
 23 25  2  0
 25 26  1  0
 26 27  1  0
 25 28  1  0
 28 29  2  0
 29 30  1  0
 30 31  1  0
 30 32  1  0
 30 33  1  0
 19 34  2  0
 34 35  1  0
 34 36  1  0
 14  9  1  0
 15  7  1  0
 29 21  1  0
 36  4  1  0
  1 37  1  0
  1 38  1  0
  1 39  1  0
  2 40  1  0
  3 41  1  0
  3 42  1  0
  3 43  1  0
  5 44  1  0
  5 45  1  0
  6 46  1  0
  6 47  1  0
 10 48  1  0
 11 49  1  0
 12 50  1  0
 13 51  1  0
 16 52  1  0
 16 53  1  0
 22 54  1  0
 24 55  1  0
 24 56  1  0
 24 57  1  0
 26 58  1  0
 26 59  1  0
 27 60  1  0
 28 61  1  0
 31 62  1  0
 31 63  1  0
 31 64  1  0
 32 65  1  0
 32 66  1  0
 32 67  1  0
 33 68  1  0
 33 69  1  0
 33 70  1  0
 35 71  1  0
M  END
$$$$
