
     RDKit          3D

 72 75  0  0  0  0  0  0  0  0999 V2000
   -3.5865   -4.0338   -1.6333 C   0  0  0  0  0  0  0  0  0  0  0  0
   -3.2221   -2.5573   -1.5079 C   0  0  0  0  0  0  0  0  0  0  0  0
   -2.8572   -2.1993   -0.0578 C   0  0  0  0  0  0  0  0  0  0  0  0
   -2.3171   -0.7559    0.1096 C   0  0  0  0  0  0  0  0  0  0  0  0
   -3.3091    0.3316   -0.3589 C   0  0  0  0  0  0  0  0  0  0  0  0
   -4.6592    0.2999    0.3751 C   0  0  0  0  0  0  0  0  0  0  0  0
   -5.5018    1.4813   -0.0253 C   0  0  0  0  0  0  0  0  0  0  0  0
   -6.3277    1.4101   -1.1597 C   0  0  0  0  0  0  0  0  0  0  0  0
   -7.0839    2.5195   -1.5508 C   0  0  0  0  0  0  0  0  0  0  0  0
   -7.0132    3.7085   -0.8196 C   0  0  0  0  0  0  0  0  0  0  0  0
   -6.1829    3.7915    0.3016 C   0  0  0  0  0  0  0  0  0  0  0  0
   -5.4250    2.6845    0.6963 C   0  0  0  0  0  0  0  0  0  0  0  0
   -1.1161   -0.6188   -0.6571 O   0  0  0  0  0  0  0  0  0  0  0  0
    0.1426   -1.0172   -0.1843 C   0  0  0  0  0  0  0  0  0  0  0  0
    1.1678   -1.1670   -1.1082 O   0  0  0  0  0  0  0  0  0  0  0  0
    0.3436   -1.2183    1.1355 C   0  0  0  0  0  0  0  0  0  0  0  0
    1.6800   -1.6349    1.7617 C   0  0  0  0  0  0  0  0  0  0  0  0
    2.5291   -2.6576    0.9470 C   0  0  0  0  0  0  0  0  0  0  0  0
    3.7558   -2.0787    0.2290 C   0  0  0  0  0  0  0  0  0  0  0  0
    2.4736   -0.4386    2.2689 C   0  0  0  0  0  0  0  0  0  0  0  0
    3.1439   -0.5225    3.5009 C   0  0  0  0  0  0  0  0  0  0  0  0
    3.8998    0.5526    3.9702 C   0  0  0  0  0  0  0  0  0  0  0  0
    4.0113    1.7175    3.2098 C   0  0  0  0  0  0  0  0  0  0  0  0
    3.3748    1.8184    1.9646 C   0  0  0  0  0  0  0  0  0  0  0  0
    3.5308    3.0231    1.1932 N   0  0  0  0  0  0  0  0  0  0  0  0
    3.0907    3.1631   -0.4804 S   0  0  0  0  0  0  0  0  0  0  0  0
    1.5921    3.1334   -0.5976 O   0  0  0  0  0  0  0  0  0  0  0  0
    3.5984    4.4705   -1.0192 O   0  0  0  0  0  0  0  0  0  0  0  0
    3.8138    1.8505   -1.4056 C   0  0  0  0  0  0  0  0  0  0  0  0
    3.1033    1.2423   -2.4497 C   0  0  0  0  0  0  0  0  0  0  0  0
    3.6732    0.1843   -3.1647 C   0  0  0  0  0  0  0  0  0  0  0  0
    4.9581   -0.2700   -2.8419 C   0  0  0  0  0  0  0  0  0  0  0  0
    5.5384   -1.3690   -3.5675 C   0  0  0  0  0  0  0  0  0  0  0  0
    6.0048   -2.2532   -4.1506 N   0  0  0  0  0  0  0  0  0  0  0  0
    5.6734    0.3425   -1.8050 C   0  0  0  0  0  0  0  0  0  0  0  0
    5.1032    1.4003   -1.0904 C   0  0  0  0  0  0  0  0  0  0  0  0
    2.6021    0.7362    1.5027 C   0  0  0  0  0  0  0  0  0  0  0  0
   -0.7841   -0.8759    2.0329 C   0  0  0  0  0  0  0  0  0  0  0  0
   -0.6308   -0.8451    3.2828 O   0  0  0  0  0  0  0  0  0  0  0  0
   -2.0238   -0.5389    1.4902 O   0  0  0  0  0  0  0  0  0  0  0  0
   -4.4534   -4.2736   -0.9813 H   0  0  0  0  0  0  0  0  0  0  0  0
   -3.8593   -4.2615   -2.6853 H   0  0  0  0  0  0  0  0  0  0  0  0
   -2.7230   -4.6707   -1.3453 H   0  0  0  0  0  0  0  0  0  0  0  0
   -2.3641   -2.3437   -2.1812 H   0  0  0  0  0  0  0  0  0  0  0  0
   -4.0939   -1.9558   -1.8413 H   0  0  0  0  0  0  0  0  0  0  0  0
   -2.0730   -2.9052    0.2945 H   0  0  0  0  0  0  0  0  0  0  0  0
   -3.7391   -2.3557    0.5994 H   0  0  0  0  0  0  0  0  0  0  0  0
   -2.8329    1.3223   -0.1844 H   0  0  0  0  0  0  0  0  0  0  0  0
   -3.4773    0.2492   -1.4542 H   0  0  0  0  0  0  0  0  0  0  0  0
   -4.4967    0.3117    1.4748 H   0  0  0  0  0  0  0  0  0  0  0  0
   -5.2070   -0.6345    0.1294 H   0  0  0  0  0  0  0  0  0  0  0  0
   -6.3836    0.4975   -1.7405 H   0  0  0  0  0  0  0  0  0  0  0  0
   -7.7218    2.4585   -2.4230 H   0  0  0  0  0  0  0  0  0  0  0  0
   -7.5980    4.5666   -1.1245 H   0  0  0  0  0  0  0  0  0  0  0  0
   -6.1237    4.7150    0.8630 H   0  0  0  0  0  0  0  0  0  0  0  0
   -4.7780    2.7649    1.5610 H   0  0  0  0  0  0  0  0  0  0  0  0
    1.0004   -1.0102   -2.0943 H   0  0  0  0  0  0  0  0  0  0  0  0
    1.3800   -2.2154    2.6637 H   0  0  0  0  0  0  0  0  0  0  0  0
    1.8902   -3.1997    0.2176 H   0  0  0  0  0  0  0  0  0  0  0  0
    2.9097   -3.4376    1.6437 H   0  0  0  0  0  0  0  0  0  0  0  0
    4.2046   -2.8561   -0.4245 H   0  0  0  0  0  0  0  0  0  0  0  0
    4.5225   -1.7649    0.9687 H   0  0  0  0  0  0  0  0  0  0  0  0
    3.4912   -1.2067   -0.3970 H   0  0  0  0  0  0  0  0  0  0  0  0
    3.0817   -1.4222    4.1004 H   0  0  0  0  0  0  0  0  0  0  0  0
    4.4063    0.4805    4.9240 H   0  0  0  0  0  0  0  0  0  0  0  0
    4.6075    2.5392    3.5861 H   0  0  0  0  0  0  0  0  0  0  0  0
    4.0186    3.8408    1.6230 H   0  0  0  0  0  0  0  0  0  0  0  0
    2.1072    1.5795   -2.7057 H   0  0  0  0  0  0  0  0  0  0  0  0
    3.1100   -0.2830   -3.9636 H   0  0  0  0  0  0  0  0  0  0  0  0
    6.6673   -0.0014   -1.5453 H   0  0  0  0  0  0  0  0  0  0  0  0
    5.6630    1.8626   -0.2874 H   0  0  0  0  0  0  0  0  0  0  0  0
    2.1007    0.7998    0.5508 H   0  0  0  0  0  0  0  0  0  0  0  0
  1  2  1  0
  2  3  1  0
  3  4  1  0
  4  5  1  0
  5  6  1  0
  6  7  1  0
  7  8  2  0
  8  9  1  0
  9 10  2  0
 10 11  1  0
 11 12  2  0
  4 13  1  0
 13 14  1  0
 14 15  1  0
 14 16  2  0
 16 17  1  0
 17 18  1  0
 18 19  1  0
 17 20  1  0
 20 21  2  0
 21 22  1  0
 22 23  2  0
 23 24  1  0
 24 25  1  0
 25 26  1  0
 26 27  2  0
 26 28  2  0
 26 29  1  0
 29 30  2  0
 30 31  1  0
 31 32  2  0
 32 33  1  0
 33 34  3  0
 32 35  1  0
 35 36  2  0
 24 37  2  0
 16 38  1  0
 38 39  2  0
 38 40  1  0
 12  7  1  0
 36 29  1  0
 37 20  1  0
 40  4  1  0
  1 41  1  0
  1 42  1  0
  1 43  1  0
  2 44  1  0
  2 45  1  0
  3 46  1  0
  3 47  1  0
  5 48  1  0
  5 49  1  0
  6 50  1  0
  6 51  1  0
  8 52  1  0
  9 53  1  0
 10 54  1  0
 11 55  1  0
 12 56  1  0
 15 57  1  0
 17 58  1  0
 18 59  1  0
 18 60  1  0
 19 61  1  0
 19 62  1  0
 19 63  1  0
 21 64  1  0
 22 65  1  0
 23 66  1  0
 25 67  1  0
 30 68  1  0
 31 69  1  0
 35 70  1  0
 36 71  1  0
 37 72  1  0
M  END
$$$$
