
     RDKit          3D

 64 68  0  0  0  0  0  0  0  0999 V2000
   -4.7821    2.3723    3.2692 C   0  0  0  0  0  0  0  0  0  0  0  0
   -4.6369    1.7317    1.8877 C   0  0  0  0  0  0  0  0  0  0  0  0
   -4.0392    0.3053    1.9678 C   0  0  0  0  0  0  0  0  0  0  0  0
   -2.5677    0.3300    2.3429 C   0  0  0  0  0  0  0  0  0  0  0  0
   -2.1491   -0.1836    3.5827 C   0  0  0  0  0  0  0  0  0  0  0  0
   -0.7992   -0.1597    3.9389 C   0  0  0  0  0  0  0  0  0  0  0  0
    0.1498    0.3644    3.0596 C   0  0  0  0  0  0  0  0  0  0  0  0
   -0.2410    0.8607    1.8087 C   0  0  0  0  0  0  0  0  0  0  0  0
    0.7531    1.4040    0.9243 N   0  0  0  0  0  0  0  0  0  0  0  0
    0.7132    1.2721   -0.5063 C   0  0  0  0  0  0  0  0  0  0  0  0
   -0.1388    0.5255   -1.0602 O   0  0  0  0  0  0  0  0  0  0  0  0
    1.7524    1.9488   -1.3510 C   0  0  0  0  0  0  0  0  0  0  0  0
    2.9534    1.0308   -1.5869 C   0  0  0  0  0  0  0  0  0  0  0  0
    3.6266    0.7440   -0.3129 N   0  0  0  0  0  0  0  0  0  0  0  0
    4.4548   -0.4716   -0.3710 C   0  0  0  0  0  0  0  0  0  0  0  0
    4.8566   -0.8629    1.0288 C   0  0  0  0  0  0  0  0  0  0  0  0
    6.1740   -0.8123    1.2054 C   0  0  0  0  0  0  0  0  0  0  0  0
    6.7863   -0.4214   -0.0458 C   0  0  0  0  0  0  0  0  0  0  0  0
    8.1391   -0.2968   -0.3595 C   0  0  0  0  0  0  0  0  0  0  0  0
    8.4870    0.0253   -1.6813 C   0  0  0  0  0  0  0  0  0  0  0  0
    7.4856    0.1947   -2.6579 C   0  0  0  0  0  0  0  0  0  0  0  0
    6.1298    0.0544   -2.3160 C   0  0  0  0  0  0  0  0  0  0  0  0
    5.8029   -0.2317   -0.9874 C   0  0  0  0  0  0  0  0  0  0  0  0
   -1.6044    0.8633    1.4662 C   0  0  0  0  0  0  0  0  0  0  0  0
   -4.2558   -0.5608    0.7211 C   0  0  0  0  0  0  0  0  0  0  0  0
   -4.3768   -1.9605    0.8792 C   0  0  0  0  0  0  0  0  0  0  0  0
   -4.3350   -2.5329    2.1482 O   0  0  0  0  0  0  0  0  0  0  0  0
   -4.5247   -2.7572   -0.1739 O   0  0  0  0  0  0  0  0  0  0  0  0
   -4.5518   -2.3095   -1.4212 C   0  0  0  0  0  0  0  0  0  0  0  0
   -4.7129   -3.2142   -2.4767 C   0  0  0  0  0  0  0  0  0  0  0  0
   -4.7335   -2.7566   -3.7967 C   0  0  0  0  0  0  0  0  0  0  0  0
   -4.5925   -1.3934   -4.0681 C   0  0  0  0  0  0  0  0  0  0  0  0
   -4.4319   -0.4810   -3.0209 C   0  0  0  0  0  0  0  0  0  0  0  0
   -4.4125   -0.9316   -1.6864 C   0  0  0  0  0  0  0  0  0  0  0  0
   -4.2535   -0.0522   -0.6016 C   0  0  0  0  0  0  0  0  0  0  0  0
   -4.1066    1.1803   -0.8209 O   0  0  0  0  0  0  0  0  0  0  0  0
   -5.4537    1.7639    3.9115 H   0  0  0  0  0  0  0  0  0  0  0  0
   -5.2205    3.3870    3.1633 H   0  0  0  0  0  0  0  0  0  0  0  0
   -3.7905    2.4668    3.7603 H   0  0  0  0  0  0  0  0  0  0  0  0
   -3.9978    2.4002    1.2734 H   0  0  0  0  0  0  0  0  0  0  0  0
   -5.6455    1.6843    1.4218 H   0  0  0  0  0  0  0  0  0  0  0  0
   -4.6067   -0.1889    2.7880 H   0  0  0  0  0  0  0  0  0  0  0  0
   -2.8676   -0.5975    4.2791 H   0  0  0  0  0  0  0  0  0  0  0  0
   -0.4874   -0.5505    4.8989 H   0  0  0  0  0  0  0  0  0  0  0  0
    1.1939    0.3726    3.3468 H   0  0  0  0  0  0  0  0  0  0  0  0
    1.6095    1.8245    1.3513 H   0  0  0  0  0  0  0  0  0  0  0  0
    1.3057    2.2231   -2.3313 H   0  0  0  0  0  0  0  0  0  0  0  0
    2.0859    2.8887   -0.8602 H   0  0  0  0  0  0  0  0  0  0  0  0
    2.5972    0.0967   -2.0769 H   0  0  0  0  0  0  0  0  0  0  0  0
    3.6546    1.5442   -2.2795 H   0  0  0  0  0  0  0  0  0  0  0  0
    4.2156    1.5692   -0.0459 H   0  0  0  0  0  0  0  0  0  0  0  0
    3.9268   -1.3211   -0.8572 H   0  0  0  0  0  0  0  0  0  0  0  0
    4.1591   -1.1389    1.8090 H   0  0  0  0  0  0  0  0  0  0  0  0
    6.6903   -1.0471    2.1268 H   0  0  0  0  0  0  0  0  0  0  0  0
    8.9019   -0.4555    0.3917 H   0  0  0  0  0  0  0  0  0  0  0  0
    9.5292    0.1277   -1.9544 H   0  0  0  0  0  0  0  0  0  0  0  0
    7.7623    0.4227   -3.6789 H   0  0  0  0  0  0  0  0  0  0  0  0
    5.3637    0.1505   -3.0727 H   0  0  0  0  0  0  0  0  0  0  0  0
   -1.9175    1.2993    0.5295 H   0  0  0  0  0  0  0  0  0  0  0  0
   -4.4167   -3.5352    2.2675 H   0  0  0  0  0  0  0  0  0  0  0  0
   -4.8200   -4.2725   -2.2741 H   0  0  0  0  0  0  0  0  0  0  0  0
   -4.8576   -3.4595   -4.6104 H   0  0  0  0  0  0  0  0  0  0  0  0
   -4.6078   -1.0429   -5.0920 H   0  0  0  0  0  0  0  0  0  0  0  0
   -4.3248    0.5706   -3.2570 H   0  0  0  0  0  0  0  0  0  0  0  0
  1  2  1  0
  2  3  1  0
  3  4  1  0
  4  5  2  0
  5  6  1  0
  6  7  2  0
  7  8  1  0
  8  9  1  0
  9 10  1  0
 10 11  2  0
 10 12  1  0
 12 13  1  0
 13 14  1  0
 14 15  1  0
 15 16  1  0
 16 17  2  0
 17 18  1  0
 18 19  2  0
 19 20  1  0
 20 21  2  0
 21 22  1  0
 22 23  2  0
  8 24  2  0
  3 25  1  0
 25 26  2  0
 26 27  1  0
 26 28  1  0
 28 29  1  0
 29 30  2  0
 30 31  1  0
 31 32  2  0
 32 33  1  0
 33 34  2  0
 34 35  1  0
 35 36  2  0
 23 15  1  0
 23 18  1  0
 24  4  1  0
 34 29  1  0
 35 25  1  0
  1 37  1  0
  1 38  1  0
  1 39  1  0
  2 40  1  0
  2 41  1  0
  3 42  1  0
  5 43  1  0
  6 44  1  0
  7 45  1  0
  9 46  1  0
 12 47  1  0
 12 48  1  0
 13 49  1  0
 13 50  1  0
 14 51  1  0
 15 52  1  0
 16 53  1  0
 17 54  1  0
 19 55  1  0
 20 56  1  0
 21 57  1  0
 22 58  1  0
 24 59  1  0
 27 60  1  0
 30 61  1  0
 31 62  1  0
 32 63  1  0
 33 64  1  0
M  END
$$$$
