
     RDKit          3D

 79 80  0  0  0  0  0  0  0  0999 V2000
    9.0992    0.9810    0.2140 C   0  0  0  0  0  0  0  0  0  0  0  0
    7.5998    1.2356   -0.0189 C   0  0  0  0  0  0  0  0  0  0  0  0
    7.0775    2.1872    1.0728 C   0  0  0  0  0  0  0  0  0  0  0  0
    6.7806   -0.0898   -0.0482 C   0  0  2  0  0  0  0  0  0  0  0  0
    7.2889   -1.0754   -1.1132 C   0  0  0  0  0  0  0  0  0  0  0  0
    5.3152    0.1864   -0.2979 C   0  0  0  0  0  0  0  0  0  0  0  0
    4.9589    0.6889   -1.3992 O   0  0  0  0  0  0  0  0  0  0  0  0
    4.3416   -0.1132    0.7168 N   0  0  0  0  0  0  0  0  0  0  0  0
    2.9396    0.1795    0.5940 C   0  0  0  0  0  0  0  0  0  0  0  0
    2.5172    0.8622   -0.3796 O   0  0  0  0  0  0  0  0  0  0  0  0
    1.9832   -0.2588    1.6889 C   0  0  2  0  0  0  0  0  0  0  0  0
    2.3098   -1.5405    2.1707 O   0  0  0  0  0  0  0  0  0  0  0  0
    0.4805   -0.1726    1.2862 C   0  0  2  0  0  0  0  0  0  0  0  0
   -0.3501   -0.2747    2.4181 O   0  0  0  0  0  0  0  0  0  0  0  0
    0.0562   -1.1916    0.1879 C   0  0  1  0  0  0  0  0  0  0  0  0
    0.0656   -2.5069    0.6929 O   0  0  0  0  0  0  0  0  0  0  0  0
   -1.3189   -0.8547   -0.4512 C   0  0  1  0  0  0  0  0  0  0  0  0
   -1.2577    0.3950   -1.1498 O   0  0  0  0  0  0  0  0  0  0  0  0
   -1.7015    1.6499   -0.6948 C   0  0  0  0  0  0  0  0  0  0  0  0
   -2.2914    1.8569    0.5677 C   0  0  0  0  0  0  0  0  0  0  0  0
   -2.7066    3.1352    0.9531 C   0  0  0  0  0  0  0  0  0  0  0  0
   -2.5504    4.2325    0.0863 C   0  0  0  0  0  0  0  0  0  0  0  0
   -2.9771    5.5997    0.4815 C   0  0  0  0  0  0  0  0  0  0  0  0
   -4.0460    5.8132    1.3722 C   0  0  0  0  0  0  0  0  0  0  0  0
   -4.4113    7.1183    1.7092 C   0  0  0  0  0  0  0  0  0  0  0  0
   -3.7213    8.1985    1.1594 C   0  0  0  0  0  0  0  0  0  0  0  0
   -2.6732    7.9562    0.2711 C   0  0  0  0  0  0  0  0  0  0  0  0
   -2.3306    6.6791   -0.0451 N   0  0  0  0  0  0  0  0  0  0  0  0
   -1.9511    4.0215   -1.1670 C   0  0  0  0  0  0  0  0  0  0  0  0
   -1.5369    2.7437   -1.5507 C   0  0  0  0  0  0  0  0  0  0  0  0
   -1.6903   -1.9225   -1.4467 C   0  0  0  0  0  0  0  0  0  0  0  0
   -1.1638   -1.9077   -2.5930 O   0  0  0  0  0  0  0  0  0  0  0  0
   -2.5919   -2.9771   -1.0698 N   0  0  0  0  0  0  0  0  0  0  0  0
   -3.0381   -4.0091   -1.9692 C   0  0  0  0  0  0  0  0  0  0  0  0
   -2.7387   -3.9554   -3.1932 O   0  0  0  0  0  0  0  0  0  0  0  0
   -3.9125   -5.1482   -1.4891 C   0  0  1  0  0  0  0  0  0  0  0  0
   -3.4508   -5.6921   -0.1241 C   0  0  0  0  0  0  0  0  0  0  0  0
   -5.4240   -4.7765   -1.5566 C   0  0  0  0  0  0  0  0  0  0  0  0
   -6.3234   -5.9967   -1.3069 C   0  0  0  0  0  0  0  0  0  0  0  0
   -5.8272   -3.6230   -0.6225 C   0  0  0  0  0  0  0  0  0  0  0  0
    9.2556    0.3684    1.1278 H   0  0  0  0  0  0  0  0  0  0  0  0
    9.5493    0.4617   -0.6572 H   0  0  0  0  0  0  0  0  0  0  0  0
    9.6430    1.9426    0.3324 H   0  0  0  0  0  0  0  0  0  0  0  0
    7.4923    1.7508   -0.9997 H   0  0  0  0  0  0  0  0  0  0  0  0
    7.6812    3.1195    1.0955 H   0  0  0  0  0  0  0  0  0  0  0  0
    7.1303    1.7022    2.0713 H   0  0  0  0  0  0  0  0  0  0  0  0
    6.0261    2.4808    0.8709 H   0  0  0  0  0  0  0  0  0  0  0  0
    6.8901   -0.5902    0.9396 H   0  0  0  0  0  0  0  0  0  0  0  0
    7.3601   -0.5813   -2.1060 H   0  0  0  0  0  0  0  0  0  0  0  0
    6.5994   -1.9435   -1.1946 H   0  0  0  0  0  0  0  0  0  0  0  0
    8.2850   -1.4763   -0.8328 H   0  0  0  0  0  0  0  0  0  0  0  0
    4.6719   -0.5638    1.5995 H   0  0  0  0  0  0  0  0  0  0  0  0
    2.1340    0.4544    2.5278 H   0  0  0  0  0  0  0  0  0  0  0  0
    2.4577   -2.1344    1.3891 H   0  0  0  0  0  0  0  0  0  0  0  0
    0.3330    0.8501    0.8846 H   0  0  0  0  0  0  0  0  0  0  0  0
   -0.0906   -1.0901    2.9199 H   0  0  0  0  0  0  0  0  0  0  0  0
    0.8091   -1.1489   -0.6284 H   0  0  0  0  0  0  0  0  0  0  0  0
   -0.7231   -2.6143    1.2857 H   0  0  0  0  0  0  0  0  0  0  0  0
   -2.1077   -0.8399    0.3260 H   0  0  0  0  0  0  0  0  0  0  0  0
   -2.4231    1.0539    1.2748 H   0  0  0  0  0  0  0  0  0  0  0  0
   -3.1252    3.2628    1.9425 H   0  0  0  0  0  0  0  0  0  0  0  0
   -4.6107    4.9885    1.7859 H   0  0  0  0  0  0  0  0  0  0  0  0
   -5.2335    7.2920    2.3913 H   0  0  0  0  0  0  0  0  0  0  0  0
   -3.9994    9.2129    1.4144 H   0  0  0  0  0  0  0  0  0  0  0  0
   -2.1316    8.7831   -0.1682 H   0  0  0  0  0  0  0  0  0  0  0  0
   -1.8127    4.8436   -1.8582 H   0  0  0  0  0  0  0  0  0  0  0  0
   -1.0826    2.6018   -2.5233 H   0  0  0  0  0  0  0  0  0  0  0  0
   -2.9421   -2.9839   -0.0870 H   0  0  0  0  0  0  0  0  0  0  0  0
   -3.7554   -5.9829   -2.2099 H   0  0  0  0  0  0  0  0  0  0  0  0
   -2.3542   -5.8710   -0.1394 H   0  0  0  0  0  0  0  0  0  0  0  0
   -3.9417   -6.6641    0.0899 H   0  0  0  0  0  0  0  0  0  0  0  0
   -3.6798   -4.9942    0.7052 H   0  0  0  0  0  0  0  0  0  0  0  0
   -5.6331   -4.4388   -2.5969 H   0  0  0  0  0  0  0  0  0  0  0  0
   -6.0265   -6.8397   -1.9665 H   0  0  0  0  0  0  0  0  0  0  0  0
   -7.3808   -5.7416   -1.5332 H   0  0  0  0  0  0  0  0  0  0  0  0
   -6.2643   -6.3259   -0.2480 H   0  0  0  0  0  0  0  0  0  0  0  0
   -5.6677   -3.8888    0.4426 H   0  0  0  0  0  0  0  0  0  0  0  0
   -6.9040   -3.3864   -0.7598 H   0  0  0  0  0  0  0  0  0  0  0  0
   -5.2573   -2.7029   -0.8637 H   0  0  0  0  0  0  0  0  0  0  0  0
  1  2  1  0
  2  3  1  0
  2  4  1  0
  4  5  1  0
  4  6  1  0
  6  7  2  0
  6  8  1  0
  8  9  1  0
  9 10  2  0
  9 11  1  0
 11 12  1  0
 11 13  1  0
 13 14  1  0
 13 15  1  0
 15 16  1  0
 15 17  1  0
 17 18  1  0
 18 19  1  0
 19 20  2  0
 20 21  1  0
 21 22  2  0
 22 23  1  0
 23 24  2  0
 24 25  1  0
 25 26  2  0
 26 27  1  0
 27 28  2  0
 22 29  1  0
 29 30  2  0
 17 31  1  0
 31 32  2  0
 31 33  1  0
 33 34  1  0
 34 35  2  0
 34 36  1  0
 36 37  1  0
 36 38  1  0
 38 39  1  0
 38 40  1  0
 28 23  1  0
 30 19  1  0
  1 41  1  0
  1 42  1  0
  1 43  1  0
  2 44  1  0
  3 45  1  0
  3 46  1  0
  3 47  1  0
  4 48  1  1
  5 49  1  0
  5 50  1  0
  5 51  1  0
  8 52  1  0
 11 53  1  1
 12 54  1  0
 13 55  1  6
 14 56  1  0
 15 57  1  6
 16 58  1  0
 17 59  1  1
 20 60  1  0
 21 61  1  0
 24 62  1  0
 25 63  1  0
 26 64  1  0
 27 65  1  0
 29 66  1  0
 30 67  1  0
 33 68  1  0
 36 69  1  6
 37 70  1  0
 37 71  1  0
 37 72  1  0
 38 73  1  0
 39 74  1  0
 39 75  1  0
 39 76  1  0
 40 77  1  0
 40 78  1  0
 40 79  1  0
M  END
$$$$
