
     RDKit          3D

 77 81  0  0  0  0  0  0  0  0999 V2000
   -5.1113   -3.8267   -2.1880 C   0  0  0  0  0  0  0  0  0  0  0  0
   -5.3124   -2.6396   -1.2235 C   0  0  0  0  0  0  0  0  0  0  0  0
   -4.8315   -3.0630    0.1782 C   0  0  0  0  0  0  0  0  0  0  0  0
   -6.8120   -2.2850   -1.1921 C   0  0  0  0  0  0  0  0  0  0  0  0
   -4.5251   -1.4886   -1.7081 N   0  0  0  0  0  0  0  0  0  0  0  0
   -4.4747   -0.1953   -1.0761 C   0  0  0  0  0  0  0  0  0  0  0  0
   -5.1128    0.0245   -0.0128 O   0  0  0  0  0  0  0  0  0  0  0  0
   -3.6970    0.8984   -1.6983 C   0  0  0  0  0  0  0  0  0  0  0  0
   -3.9121    1.1636   -3.0621 C   0  0  0  0  0  0  0  0  0  0  0  0
   -3.2480    2.2122   -3.6982 C   0  0  0  0  0  0  0  0  0  0  0  0
   -2.3638    3.0146   -2.9817 C   0  0  0  0  0  0  0  0  0  0  0  0
   -2.1272    2.7614   -1.6306 C   0  0  0  0  0  0  0  0  0  0  0  0
   -2.7698    1.6961   -0.9709 C   0  0  0  0  0  0  0  0  0  0  0  0
   -2.3916    1.4145    0.4742 C   0  0  0  0  0  0  0  0  0  0  0  0
   -1.3778    0.2580    0.6397 C   0  0  1  0  0  0  0  0  0  0  0  0
   -1.9560   -0.9346    0.1706 O   0  0  0  0  0  0  0  0  0  0  0  0
   -0.0326    0.5109   -0.0957 C   0  0  2  0  0  0  0  0  0  0  0  0
    0.9850   -0.6142    0.1625 C   0  0  0  0  0  0  0  0  0  0  0  0
    2.4727   -0.3765   -0.8711 S   0  0  0  0  0  0  0  0  0  0  0  0
    3.4609   -1.5483    0.0578 C   0  0  0  0  0  0  0  0  0  0  0  0
    4.2278   -1.1058    1.1414 C   0  0  0  0  0  0  0  0  0  0  0  0
    4.9995   -2.0113    1.8744 C   0  0  0  0  0  0  0  0  0  0  0  0
    5.0112   -3.3705    1.5262 C   0  0  0  0  0  0  0  0  0  0  0  0
    5.7811   -4.2901    2.2552 C   0  0  0  0  0  0  0  0  0  0  0  0
    5.7836   -5.6416    1.8980 C   0  0  0  0  0  0  0  0  0  0  0  0
    5.0206   -6.0845    0.8142 C   0  0  0  0  0  0  0  0  0  0  0  0
    4.2494   -5.1793    0.0795 C   0  0  0  0  0  0  0  0  0  0  0  0
    4.2376   -3.8195    0.4272 C   0  0  0  0  0  0  0  0  0  0  0  0
    3.4672   -2.9008   -0.3017 C   0  0  0  0  0  0  0  0  0  0  0  0
    0.5477    1.8177    0.2517 N   0  0  0  0  0  0  0  0  0  0  0  0
    0.9121    2.2329    1.5806 C   0  0  0  0  0  0  0  0  0  0  0  0
    0.7531    1.4604    2.5632 O   0  0  0  0  0  0  0  0  0  0  0  0
    1.4162    3.6003    1.8190 C   0  0  0  0  0  0  0  0  0  0  0  0
    0.7259    4.4093    2.7329 C   0  0  0  0  0  0  0  0  0  0  0  0
    1.1323    5.7262    2.9442 C   0  0  0  0  0  0  0  0  0  0  0  0
    2.2011    6.2273    2.2749 N   0  0  0  0  0  0  0  0  0  0  0  0
    2.9136    5.4752    1.3951 C   0  0  0  0  0  0  0  0  0  0  0  0
    4.0199    6.0347    0.7453 C   0  0  0  0  0  0  0  0  0  0  0  0
    4.7802    5.2634   -0.1359 C   0  0  0  0  0  0  0  0  0  0  0  0
    4.4458    3.9275   -0.3649 C   0  0  0  0  0  0  0  0  0  0  0  0
    3.3416    3.3578    0.2751 C   0  0  0  0  0  0  0  0  0  0  0  0
    2.5468    4.1278    1.1486 C   0  0  0  0  0  0  0  0  0  0  0  0
   -5.4462   -3.5550   -3.2125 H   0  0  0  0  0  0  0  0  0  0  0  0
   -5.6915   -4.7142   -1.8539 H   0  0  0  0  0  0  0  0  0  0  0  0
   -4.0374   -4.1096   -2.2371 H   0  0  0  0  0  0  0  0  0  0  0  0
   -5.0260   -2.2742    0.9327 H   0  0  0  0  0  0  0  0  0  0  0  0
   -3.7403   -3.2712    0.1635 H   0  0  0  0  0  0  0  0  0  0  0  0
   -5.3599   -3.9826    0.5109 H   0  0  0  0  0  0  0  0  0  0  0  0
   -7.1386   -1.9086   -2.1853 H   0  0  0  0  0  0  0  0  0  0  0  0
   -7.4202   -3.1796   -0.9365 H   0  0  0  0  0  0  0  0  0  0  0  0
   -7.0311   -1.5060   -0.4341 H   0  0  0  0  0  0  0  0  0  0  0  0
   -3.9390   -1.6143   -2.5654 H   0  0  0  0  0  0  0  0  0  0  0  0
   -4.6151    0.5688   -3.6331 H   0  0  0  0  0  0  0  0  0  0  0  0
   -3.4288    2.4100   -4.7469 H   0  0  0  0  0  0  0  0  0  0  0  0
   -1.8569    3.8339   -3.4750 H   0  0  0  0  0  0  0  0  0  0  0  0
   -1.4349    3.4005   -1.0984 H   0  0  0  0  0  0  0  0  0  0  0  0
   -3.2958    1.1925    1.0740 H   0  0  0  0  0  0  0  0  0  0  0  0
   -1.9723    2.3321    0.9416 H   0  0  0  0  0  0  0  0  0  0  0  0
   -1.1813    0.1676    1.7332 H   0  0  0  0  0  0  0  0  0  0  0  0
   -1.7044   -1.6591    0.8011 H   0  0  0  0  0  0  0  0  0  0  0  0
   -0.2467    0.5062   -1.1883 H   0  0  0  0  0  0  0  0  0  0  0  0
    1.2611   -0.6425    1.2372 H   0  0  0  0  0  0  0  0  0  0  0  0
    0.5453   -1.5976   -0.1067 H   0  0  0  0  0  0  0  0  0  0  0  0
    4.2229   -0.0591    1.4190 H   0  0  0  0  0  0  0  0  0  0  0  0
    5.5849   -1.6504    2.7117 H   0  0  0  0  0  0  0  0  0  0  0  0
    6.3786   -3.9647    3.0985 H   0  0  0  0  0  0  0  0  0  0  0  0
    6.3786   -6.3476    2.4628 H   0  0  0  0  0  0  0  0  0  0  0  0
    5.0269   -7.1323    0.5428 H   0  0  0  0  0  0  0  0  0  0  0  0
    3.6639   -5.5407   -0.7576 H   0  0  0  0  0  0  0  0  0  0  0  0
    2.8699   -3.2318   -1.1432 H   0  0  0  0  0  0  0  0  0  0  0  0
    0.6931    2.4974   -0.5283 H   0  0  0  0  0  0  0  0  0  0  0  0
   -0.1398    4.0296    3.2624 H   0  0  0  0  0  0  0  0  0  0  0  0
    0.5914    6.3548    3.6389 H   0  0  0  0  0  0  0  0  0  0  0  0
    4.2966    7.0658    0.9282 H   0  0  0  0  0  0  0  0  0  0  0  0
    5.6371    5.6987   -0.6336 H   0  0  0  0  0  0  0  0  0  0  0  0
    5.0480    3.3287   -1.0361 H   0  0  0  0  0  0  0  0  0  0  0  0
    3.1306    2.3145    0.0951 H   0  0  0  0  0  0  0  0  0  0  0  0
  1  2  1  0
  2  3  1  0
  2  4  1  0
  2  5  1  0
  5  6  1  0
  6  7  2  0
  6  8  1  0
  8  9  2  0
  9 10  1  0
 10 11  2  0
 11 12  1  0
 12 13  2  0
 13 14  1  0
 14 15  1  0
 15 16  1  0
 15 17  1  0
 17 18  1  0
 18 19  1  0
 19 20  1  0
 20 21  2  0
 21 22  1  0
 22 23  2  0
 23 24  1  0
 24 25  2  0
 25 26  1  0
 26 27  2  0
 27 28  1  0
 28 29  2  0
 17 30  1  0
 30 31  1  0
 31 32  2  0
 31 33  1  0
 33 34  2  0
 34 35  1  0
 35 36  2  0
 36 37  1  0
 37 38  2  0
 38 39  1  0
 39 40  2  0
 40 41  1  0
 41 42  2  0
 13  8  1  0
 28 23  1  0
 29 20  1  0
 42 33  1  0
 42 37  1  0
  1 43  1  0
  1 44  1  0
  1 45  1  0
  3 46  1  0
  3 47  1  0
  3 48  1  0
  4 49  1  0
  4 50  1  0
  4 51  1  0
  5 52  1  0
  9 53  1  0
 10 54  1  0
 11 55  1  0
 12 56  1  0
 14 57  1  0
 14 58  1  0
 15 59  1  1
 16 60  1  0
 17 61  1  6
 18 62  1  0
 18 63  1  0
 21 64  1  0
 22 65  1  0
 24 66  1  0
 25 67  1  0
 26 68  1  0
 27 69  1  0
 29 70  1  0
 30 71  1  0
 34 72  1  0
 35 73  1  0
 38 74  1  0
 39 75  1  0
 40 76  1  0
 41 77  1  0
M  END
$$$$
