
     RDKit          3D

 86 90  0  0  0  0  0  0  0  0999 V2000
   -1.6837   -2.0236    0.4352 O   0  0  0  0  0  0  0  0  0  0  0  0
   -0.9727   -1.8307   -0.7624 C   0  0  2  0  0  0  0  0  0  0  0  0
    0.5396   -1.6493   -0.4523 C   0  0  1  0  0  0  0  0  0  0  0  0
    1.3342   -1.6908   -1.6129 O   0  0  0  0  0  0  0  0  0  0  0  0
    0.8627   -0.4166    0.4604 C   0  0  1  0  0  0  0  0  0  0  0  0
    2.0202   -0.7463    1.4499 C   0  0  0  0  0  0  0  0  0  0  0  0
    1.6564   -1.8416    2.4279 C   0  0  0  0  0  0  0  0  0  0  0  0
    2.2446   -3.1151    2.3279 C   0  0  0  0  0  0  0  0  0  0  0  0
    1.8917   -4.1274    3.2255 C   0  0  0  0  0  0  0  0  0  0  0  0
    0.9551   -3.8767    4.2316 C   0  0  0  0  0  0  0  0  0  0  0  0
    0.3721   -2.6120    4.3443 C   0  0  0  0  0  0  0  0  0  0  0  0
    0.7222   -1.5968    3.4494 C   0  0  0  0  0  0  0  0  0  0  0  0
    1.0564    0.8321   -0.3416 N   0  0  0  0  0  0  0  0  0  0  0  0
    1.9560    1.9153    0.1302 C   0  0  0  0  0  0  0  0  0  0  0  0
    3.4799    1.6467   -0.0703 C   0  0  0  0  0  0  0  0  0  0  0  0
    3.8275    0.7729   -1.2979 C   0  0  0  0  0  0  0  0  0  0  0  0
    5.3410    0.5464   -1.4028 C   0  0  0  0  0  0  0  0  0  0  0  0
    6.0938    1.8796   -1.4662 C   0  0  0  0  0  0  0  0  0  0  0  0
    5.7613    2.7538   -0.2525 C   0  0  0  0  0  0  0  0  0  0  0  0
    4.2490    2.9838   -0.1380 C   0  0  0  0  0  0  0  0  0  0  0  0
   -0.0594    1.2026   -1.2057 C   0  0  0  0  0  0  0  0  0  0  0  0
    0.0587    1.9698   -2.2558 N   0  0  0  0  0  0  0  0  0  0  0  0
    1.2072    2.5882   -2.7698 C   0  0  0  0  0  0  0  0  0  0  0  0
    2.1387    3.1169   -3.2084 N   0  0  0  0  0  0  0  0  0  0  0  0
   -1.3557    0.6388   -0.9614 N   0  0  0  0  0  0  0  0  0  0  0  0
   -2.3974    1.5491   -0.4393 C   0  0  0  0  0  0  0  0  0  0  0  0
   -2.7686    1.2212    1.0272 C   0  0  0  0  0  0  0  0  0  0  0  0
   -4.1894    1.7217    1.3630 C   0  0  0  0  0  0  0  0  0  0  0  0
   -4.2831    3.2594    1.3891 C   0  0  0  0  0  0  0  0  0  0  0  0
   -3.0325    3.9441    1.9786 C   0  0  0  0  0  0  0  0  0  0  0  0
   -2.2035    2.9920    2.8442 C   0  0  0  0  0  0  0  0  0  0  0  0
   -1.7189    1.7751    2.0350 C   0  0  0  0  0  0  0  0  0  0  0  0
   -1.6250   -0.6826   -1.5814 C   0  0  2  0  0  0  0  0  0  0  0  0
   -3.1348   -0.9449   -1.8408 C   0  0  0  0  0  0  0  0  0  0  0  0
   -3.3851   -2.2607   -2.5371 C   0  0  0  0  0  0  0  0  0  0  0  0
   -3.8664   -3.3681   -1.8174 C   0  0  0  0  0  0  0  0  0  0  0  0
   -4.0699   -4.5923   -2.4614 C   0  0  0  0  0  0  0  0  0  0  0  0
   -3.7932   -4.7212   -3.8251 C   0  0  0  0  0  0  0  0  0  0  0  0
   -3.3111   -3.6261   -4.5472 C   0  0  0  0  0  0  0  0  0  0  0  0
   -3.1055   -2.4001   -3.9072 C   0  0  0  0  0  0  0  0  0  0  0  0
   -1.4916   -2.9471    0.7455 H   0  0  0  0  0  0  0  0  0  0  0  0
   -1.0507   -2.7580   -1.3778 H   0  0  0  0  0  0  0  0  0  0  0  0
    0.8021   -2.5721    0.1018 H   0  0  0  0  0  0  0  0  0  0  0  0
    1.0600   -0.9560   -2.2148 H   0  0  0  0  0  0  0  0  0  0  0  0
   -0.0172   -0.2435    1.1120 H   0  0  0  0  0  0  0  0  0  0  0  0
    2.2633    0.1353    2.0738 H   0  0  0  0  0  0  0  0  0  0  0  0
    2.9310   -1.0350    0.8865 H   0  0  0  0  0  0  0  0  0  0  0  0
    2.9680   -3.3270    1.5504 H   0  0  0  0  0  0  0  0  0  0  0  0
    2.3436   -5.1071    3.1400 H   0  0  0  0  0  0  0  0  0  0  0  0
    0.6828   -4.6618    4.9251 H   0  0  0  0  0  0  0  0  0  0  0  0
   -0.3503   -2.4176    5.1264 H   0  0  0  0  0  0  0  0  0  0  0  0
    0.2677   -0.6201    3.5533 H   0  0  0  0  0  0  0  0  0  0  0  0
    1.7589    2.1117    1.2052 H   0  0  0  0  0  0  0  0  0  0  0  0
    1.6808    2.8825   -0.3346 H   0  0  0  0  0  0  0  0  0  0  0  0
    3.8595    1.1204    0.8297 H   0  0  0  0  0  0  0  0  0  0  0  0
    3.4764    1.2419   -2.2330 H   0  0  0  0  0  0  0  0  0  0  0  0
    3.3426   -0.2166   -1.2186 H   0  0  0  0  0  0  0  0  0  0  0  0
    5.5614   -0.0421   -2.3194 H   0  0  0  0  0  0  0  0  0  0  0  0
    5.6932   -0.0416   -0.5266 H   0  0  0  0  0  0  0  0  0  0  0  0
    7.1872    1.6830   -1.4883 H   0  0  0  0  0  0  0  0  0  0  0  0
    5.8228    2.4182   -2.4010 H   0  0  0  0  0  0  0  0  0  0  0  0
    6.2746    3.7341   -0.3554 H   0  0  0  0  0  0  0  0  0  0  0  0
    6.1373    2.2665    0.6740 H   0  0  0  0  0  0  0  0  0  0  0  0
    3.9043    3.5794   -1.0118 H   0  0  0  0  0  0  0  0  0  0  0  0
    4.0472    3.5769    0.7807 H   0  0  0  0  0  0  0  0  0  0  0  0
   -2.0516    2.6045   -0.5024 H   0  0  0  0  0  0  0  0  0  0  0  0
   -3.2938    1.5264   -1.0879 H   0  0  0  0  0  0  0  0  0  0  0  0
   -2.7952    0.1177    1.1338 H   0  0  0  0  0  0  0  0  0  0  0  0
   -4.9259    1.3145    0.6361 H   0  0  0  0  0  0  0  0  0  0  0  0
   -4.4781    1.3260    2.3619 H   0  0  0  0  0  0  0  0  0  0  0  0
   -5.1765    3.5465    1.9853 H   0  0  0  0  0  0  0  0  0  0  0  0
   -4.4456    3.6350    0.3553 H   0  0  0  0  0  0  0  0  0  0  0  0
   -2.3931    4.3298    1.1549 H   0  0  0  0  0  0  0  0  0  0  0  0
   -3.3429    4.8191    2.5897 H   0  0  0  0  0  0  0  0  0  0  0  0
   -1.3255    3.5345    3.2570 H   0  0  0  0  0  0  0  0  0  0  0  0
   -2.8197    2.6491    3.7044 H   0  0  0  0  0  0  0  0  0  0  0  0
   -1.4499    0.9740    2.7563 H   0  0  0  0  0  0  0  0  0  0  0  0
   -0.7818    2.0555    1.5097 H   0  0  0  0  0  0  0  0  0  0  0  0
   -1.1567   -0.6849   -2.5912 H   0  0  0  0  0  0  0  0  0  0  0  0
   -3.5367   -0.1462   -2.5006 H   0  0  0  0  0  0  0  0  0  0  0  0
   -3.7044   -0.9064   -0.8875 H   0  0  0  0  0  0  0  0  0  0  0  0
   -4.0779   -3.2857   -0.7585 H   0  0  0  0  0  0  0  0  0  0  0  0
   -4.4399   -5.4421   -1.9025 H   0  0  0  0  0  0  0  0  0  0  0  0
   -3.9506   -5.6698   -4.3218 H   0  0  0  0  0  0  0  0  0  0  0  0
   -3.0946   -3.7278   -5.6028 H   0  0  0  0  0  0  0  0  0  0  0  0
   -2.7267   -1.5606   -4.4769 H   0  0  0  0  0  0  0  0  0  0  0  0
  1  2  1  0
  2  3  1  0
  3  4  1  0
  3  5  1  0
  5  6  1  0
  6  7  1  0
  7  8  2  0
  8  9  1  0
  9 10  2  0
 10 11  1  0
 11 12  2  0
  5 13  1  0
 13 14  1  0
 14 15  1  0
 15 16  1  0
 16 17  1  0
 17 18  1  0
 18 19  1  0
 19 20  1  0
 13 21  1  0
 21 22  2  3
 22 23  1  0
 23 24  3  0
 21 25  1  0
 25 26  1  0
 26 27  1  0
 27 28  1  0
 28 29  1  0
 29 30  1  0
 30 31  1  0
 31 32  1  0
 25 33  1  0
 33 34  1  0
 34 35  1  0
 35 36  2  0
 36 37  1  0
 37 38  2  0
 38 39  1  0
 39 40  2  0
 12  7  1  0
 20 15  1  0
 32 27  1  0
 33  2  1  0
 40 35  1  0
  1 41  1  0
  2 42  1  6
  3 43  1  1
  4 44  1  0
  5 45  1  1
  6 46  1  0
  6 47  1  0
  8 48  1  0
  9 49  1  0
 10 50  1  0
 11 51  1  0
 12 52  1  0
 14 53  1  0
 14 54  1  0
 15 55  1  0
 16 56  1  0
 16 57  1  0
 17 58  1  0
 17 59  1  0
 18 60  1  0
 18 61  1  0
 19 62  1  0
 19 63  1  0
 20 64  1  0
 20 65  1  0
 26 66  1  0
 26 67  1  0
 27 68  1  0
 28 69  1  0
 28 70  1  0
 29 71  1  0
 29 72  1  0
 30 73  1  0
 30 74  1  0
 31 75  1  0
 31 76  1  0
 32 77  1  0
 32 78  1  0
 33 79  1  6
 34 80  1  0
 34 81  1  0
 36 82  1  0
 37 83  1  0
 38 84  1  0
 39 85  1  0
 40 86  1  0
M  END
$$$$
