
     RDKit          3D

 86 88  0  0  0  0  0  0  0  0999 V2000
   -6.1858   -2.4789    1.1661 C   0  0  0  0  0  0  0  0  0  0  0  0
   -5.2551   -2.1964   -0.0211 C   0  0  0  0  0  0  0  0  0  0  0  0
   -4.3053   -3.3876   -0.2274 C   0  0  0  0  0  0  0  0  0  0  0  0
   -4.4749   -0.8819    0.2104 C   0  0  0  0  0  0  0  0  0  0  0  0
   -3.9220   -0.2859   -1.1067 C   0  0  0  0  0  0  0  0  0  0  0  0
   -2.8964    0.7652   -0.9197 N   0  0  0  0  0  0  0  0  0  0  0  0
   -1.5760    0.2362   -0.5199 C   0  0  0  0  0  0  0  0  0  0  0  0
   -0.6994    0.0352   -1.7698 C   0  0  1  0  0  0  0  0  0  0  0  0
   -0.4888    1.2878   -2.3710 O   0  0  0  0  0  0  0  0  0  0  0  0
    0.6687   -0.6281   -1.4578 C   0  0  2  0  0  0  0  0  0  0  0  0
    0.5410   -2.1438   -1.1819 C   0  0  0  0  0  0  0  0  0  0  0  0
    1.8937   -2.7532   -0.9108 C   0  0  0  0  0  0  0  0  0  0  0  0
    2.2889   -3.0404    0.4045 C   0  0  0  0  0  0  0  0  0  0  0  0
    3.5962   -3.4507    0.6752 C   0  0  0  0  0  0  0  0  0  0  0  0
    4.5411   -3.5404   -0.3648 C   0  0  0  0  0  0  0  0  0  0  0  0
    5.9030   -3.7911   -0.1307 O   0  0  0  0  0  0  0  0  0  0  0  0
    6.6010   -3.5205    1.0897 C   0  0  0  0  0  0  0  0  0  0  0  0
    6.9536   -2.0286    1.2310 C   0  0  0  0  0  0  0  0  0  0  0  0
    5.7177   -1.1453    1.4466 C   0  0  0  0  0  0  0  0  0  0  0  0
    6.0877    0.2981    1.7933 C   0  0  0  0  0  0  0  0  0  0  0  0
    4.8325    1.1092    1.9179 C   0  0  0  0  0  0  0  0  0  0  0  0
    4.2847    1.2374    3.0463 O   0  0  0  0  0  0  0  0  0  0  0  0
    4.2131    1.6540    0.7442 N   0  0  0  0  0  0  0  0  0  0  0  0
    2.7723    1.9154    0.6578 C   0  0  1  0  0  0  0  0  0  0  0  0
    2.4977    3.4388    0.5455 C   0  0  0  0  0  0  0  0  0  0  0  0
    0.9889    3.7299    0.4612 C   0  0  0  0  0  0  0  0  0  0  0  0
    3.0976    4.1987    1.7387 C   0  0  0  0  0  0  0  0  0  0  0  0
    2.2222    1.1643   -0.5305 C   0  0  0  0  0  0  0  0  0  0  0  0
    2.5644    1.5090   -1.6950 O   0  0  0  0  0  0  0  0  0  0  0  0
    1.3372    0.0502   -0.3392 N   0  0  0  0  0  0  0  0  0  0  0  0
    4.1224   -3.3336   -1.6840 C   0  0  0  0  0  0  0  0  0  0  0  0
    2.8109   -2.9352   -1.9575 C   0  0  0  0  0  0  0  0  0  0  0  0
   -3.4187    2.0831    0.1070 S   0  0  0  0  0  0  0  0  0  0  0  0
   -2.4792    3.2442   -0.0612 O   0  0  0  0  0  0  0  0  0  0  0  0
   -3.3919    1.6513    1.5478 O   0  0  0  0  0  0  0  0  0  0  0  0
   -5.0376    2.6131   -0.3452 C   0  0  0  0  0  0  0  0  0  0  0  0
   -5.2845    3.0369   -1.6585 C   0  0  0  0  0  0  0  0  0  0  0  0
   -6.5663    3.4498   -2.0347 C   0  0  0  0  0  0  0  0  0  0  0  0
   -7.6060    3.4434   -1.1005 C   0  0  0  0  0  0  0  0  0  0  0  0
   -7.3644    3.0251    0.2113 C   0  0  0  0  0  0  0  0  0  0  0  0
   -6.0833    2.6120    0.5906 C   0  0  0  0  0  0  0  0  0  0  0  0
   -5.6017   -2.5768    2.1066 H   0  0  0  0  0  0  0  0  0  0  0  0
   -6.7537   -3.4185    0.9959 H   0  0  0  0  0  0  0  0  0  0  0  0
   -6.9204   -1.6538    1.2838 H   0  0  0  0  0  0  0  0  0  0  0  0
   -5.8913   -2.0894   -0.9279 H   0  0  0  0  0  0  0  0  0  0  0  0
   -3.6756   -3.2466   -1.1288 H   0  0  0  0  0  0  0  0  0  0  0  0
   -4.8897   -4.3212   -0.3725 H   0  0  0  0  0  0  0  0  0  0  0  0
   -3.6418   -3.5178    0.6545 H   0  0  0  0  0  0  0  0  0  0  0  0
   -5.1647   -0.1353    0.6565 H   0  0  0  0  0  0  0  0  0  0  0  0
   -3.6676   -1.0579    0.9509 H   0  0  0  0  0  0  0  0  0  0  0  0
   -4.7685    0.1368   -1.6885 H   0  0  0  0  0  0  0  0  0  0  0  0
   -3.4982   -1.0875   -1.7452 H   0  0  0  0  0  0  0  0  0  0  0  0
   -1.0556    0.9460    0.1603 H   0  0  0  0  0  0  0  0  0  0  0  0
   -1.6739   -0.7184    0.0336 H   0  0  0  0  0  0  0  0  0  0  0  0
   -1.2545   -0.6204   -2.4811 H   0  0  0  0  0  0  0  0  0  0  0  0
   -0.2294    1.1172   -3.3142 H   0  0  0  0  0  0  0  0  0  0  0  0
    1.2969   -0.5340   -2.3719 H   0  0  0  0  0  0  0  0  0  0  0  0
    0.0898   -2.6455   -2.0658 H   0  0  0  0  0  0  0  0  0  0  0  0
   -0.1358   -2.3303   -0.3220 H   0  0  0  0  0  0  0  0  0  0  0  0
    1.5954   -2.9125    1.2264 H   0  0  0  0  0  0  0  0  0  0  0  0
    3.8675   -3.6506    1.7008 H   0  0  0  0  0  0  0  0  0  0  0  0
    6.0440   -3.8908    1.9743 H   0  0  0  0  0  0  0  0  0  0  0  0
    7.5544   -4.0890    1.0625 H   0  0  0  0  0  0  0  0  0  0  0  0
    7.6361   -1.9163    2.1017 H   0  0  0  0  0  0  0  0  0  0  0  0
    7.4984   -1.6919    0.3223 H   0  0  0  0  0  0  0  0  0  0  0  0
    5.1025   -1.5641    2.2732 H   0  0  0  0  0  0  0  0  0  0  0  0
    5.1148   -1.1284    0.5144 H   0  0  0  0  0  0  0  0  0  0  0  0
    6.7321    0.7284    0.9964 H   0  0  0  0  0  0  0  0  0  0  0  0
    6.6505    0.3266    2.7518 H   0  0  0  0  0  0  0  0  0  0  0  0
    4.8009    1.7955   -0.1089 H   0  0  0  0  0  0  0  0  0  0  0  0
    2.2664    1.5418    1.5758 H   0  0  0  0  0  0  0  0  0  0  0  0
    2.9780    3.8283   -0.3799 H   0  0  0  0  0  0  0  0  0  0  0  0
    0.8093    4.8249    0.4089 H   0  0  0  0  0  0  0  0  0  0  0  0
    0.4606    3.3226    1.3500 H   0  0  0  0  0  0  0  0  0  0  0  0
    0.5515    3.2770   -0.4531 H   0  0  0  0  0  0  0  0  0  0  0  0
    2.8770    5.2843    1.6547 H   0  0  0  0  0  0  0  0  0  0  0  0
    4.2016    4.0831    1.7601 H   0  0  0  0  0  0  0  0  0  0  0  0
    2.6764    3.8210    2.6952 H   0  0  0  0  0  0  0  0  0  0  0  0
    1.0810   -0.2255    0.6361 H   0  0  0  0  0  0  0  0  0  0  0  0
    4.8332   -3.4222   -2.4958 H   0  0  0  0  0  0  0  0  0  0  0  0
    2.5233   -2.7229   -2.9798 H   0  0  0  0  0  0  0  0  0  0  0  0
   -4.4859    3.0414   -2.3897 H   0  0  0  0  0  0  0  0  0  0  0  0
   -6.7537    3.7736   -3.0503 H   0  0  0  0  0  0  0  0  0  0  0  0
   -8.5981    3.7626   -1.3927 H   0  0  0  0  0  0  0  0  0  0  0  0
   -8.1700    3.0206    0.9341 H   0  0  0  0  0  0  0  0  0  0  0  0
   -5.9122    2.2891    1.6091 H   0  0  0  0  0  0  0  0  0  0  0  0
  1  2  1  0
  2  3  1  0
  2  4  1  0
  4  5  1  0
  5  6  1  0
  6  7  1  0
  7  8  1  0
  8  9  1  0
  8 10  1  0
 10 11  1  0
 11 12  1  0
 12 13  2  0
 13 14  1  0
 14 15  2  0
 15 16  1  0
 16 17  1  0
 17 18  1  0
 18 19  1  0
 19 20  1  0
 20 21  1  0
 21 22  2  0
 21 23  1  0
 23 24  1  0
 24 25  1  0
 25 26  1  0
 25 27  1  0
 24 28  1  0
 28 29  2  0
 28 30  1  0
 15 31  1  0
 31 32  2  0
  6 33  1  0
 33 34  2  0
 33 35  2  0
 33 36  1  0
 36 37  2  0
 37 38  1  0
 38 39  2  0
 39 40  1  0
 40 41  2  0
 30 10  1  0
 32 12  1  0
 41 36  1  0
  1 42  1  0
  1 43  1  0
  1 44  1  0
  2 45  1  0
  3 46  1  0
  3 47  1  0
  3 48  1  0
  4 49  1  0
  4 50  1  0
  5 51  1  0
  5 52  1  0
  7 53  1  0
  7 54  1  0
  8 55  1  6
  9 56  1  0
 10 57  1  6
 11 58  1  0
 11 59  1  0
 13 60  1  0
 14 61  1  0
 17 62  1  0
 17 63  1  0
 18 64  1  0
 18 65  1  0
 19 66  1  0
 19 67  1  0
 20 68  1  0
 20 69  1  0
 23 70  1  0
 24 71  1  1
 25 72  1  0
 26 73  1  0
 26 74  1  0
 26 75  1  0
 27 76  1  0
 27 77  1  0
 27 78  1  0
 30 79  1  0
 31 80  1  0
 32 81  1  0
 37 82  1  0
 38 83  1  0
 39 84  1  0
 40 85  1  0
 41 86  1  0
M  END
$$$$
