
     RDKit          3D

 64 68  0  0  0  0  0  0  0  0999 V2000
   -5.0606    0.0865   -1.4883 C   0  0  0  0  0  0  0  0  0  0  0  0
   -3.6909   -0.1800   -0.8622 C   0  0  0  0  0  0  0  0  0  0  0  0
   -3.8050   -0.7225    0.5834 C   0  0  0  0  0  0  0  0  0  0  0  0
   -2.5068   -1.2818    1.1530 C   0  0  0  0  0  0  0  0  0  0  0  0
   -2.5804   -2.1730    2.2381 C   0  0  0  0  0  0  0  0  0  0  0  0
   -1.4196   -2.6860    2.8187 C   0  0  0  0  0  0  0  0  0  0  0  0
   -0.1668   -2.3207    2.3251 C   0  0  0  0  0  0  0  0  0  0  0  0
   -0.0647   -1.4420    1.2342 C   0  0  0  0  0  0  0  0  0  0  0  0
    1.2144   -1.0238    0.7274 N   0  0  0  0  0  0  0  0  0  0  0  0
    2.3745   -1.8690    0.6736 C   0  0  0  0  0  0  0  0  0  0  0  0
    2.2757   -3.1101    0.8727 O   0  0  0  0  0  0  0  0  0  0  0  0
    3.7021   -1.2921    0.2847 C   0  0  0  0  0  0  0  0  0  0  0  0
    3.8508   -1.2620   -1.2375 C   0  0  0  0  0  0  0  0  0  0  0  0
    5.1432   -0.6661   -1.6017 N   0  0  0  0  0  0  0  0  0  0  0  0
    5.2584   -0.5106   -3.0605 C   0  0  0  0  0  0  0  0  0  0  0  0
    4.5248    0.7264   -3.5294 C   0  0  0  0  0  0  0  0  0  0  0  0
    5.3458    1.6242   -4.0677 C   0  0  0  0  0  0  0  0  0  0  0  0
    6.6893    1.0913   -4.0299 C   0  0  0  0  0  0  0  0  0  0  0  0
    7.8748    1.6551   -4.5001 C   0  0  0  0  0  0  0  0  0  0  0  0
    9.0597    0.9118   -4.3710 C   0  0  0  0  0  0  0  0  0  0  0  0
    9.0341   -0.3706   -3.7870 C   0  0  0  0  0  0  0  0  0  0  0  0
    7.8238   -0.9158   -3.3255 C   0  0  0  0  0  0  0  0  0  0  0  0
    6.6592   -0.1542   -3.4520 C   0  0  0  0  0  0  0  0  0  0  0  0
   -1.2342   -0.9115    0.6680 C   0  0  0  0  0  0  0  0  0  0  0  0
   -4.4075    0.3132    1.5330 C   0  0  0  0  0  0  0  0  0  0  0  0
   -3.7052    1.4887    1.8835 C   0  0  0  0  0  0  0  0  0  0  0  0
   -2.4336    1.7341    1.3759 O   0  0  0  0  0  0  0  0  0  0  0  0
   -4.2460    2.3824    2.7056 O   0  0  0  0  0  0  0  0  0  0  0  0
   -5.4520    2.2385    3.2389 C   0  0  0  0  0  0  0  0  0  0  0  0
   -5.9509    3.2252    4.0968 C   0  0  0  0  0  0  0  0  0  0  0  0
   -7.2204    3.0860    4.6639 C   0  0  0  0  0  0  0  0  0  0  0  0
   -7.9972    1.9607    4.3765 C   0  0  0  0  0  0  0  0  0  0  0  0
   -7.5086    0.9687    3.5208 C   0  0  0  0  0  0  0  0  0  0  0  0
   -6.2304    1.0992    2.9446 C   0  0  0  0  0  0  0  0  0  0  0  0
   -5.6965    0.1300    2.0794 C   0  0  0  0  0  0  0  0  0  0  0  0
   -6.3710   -0.8979    1.7930 O   0  0  0  0  0  0  0  0  0  0  0  0
   -4.9288    0.4261   -2.5372 H   0  0  0  0  0  0  0  0  0  0  0  0
   -5.6733   -0.8399   -1.4912 H   0  0  0  0  0  0  0  0  0  0  0  0
   -5.5979    0.8806   -0.9281 H   0  0  0  0  0  0  0  0  0  0  0  0
   -3.1051    0.7624   -0.8909 H   0  0  0  0  0  0  0  0  0  0  0  0
   -3.1666   -0.9301   -1.4941 H   0  0  0  0  0  0  0  0  0  0  0  0
   -4.4838   -1.6006    0.5084 H   0  0  0  0  0  0  0  0  0  0  0  0
   -3.5427   -2.4626    2.6427 H   0  0  0  0  0  0  0  0  0  0  0  0
   -1.4914   -3.3604    3.6623 H   0  0  0  0  0  0  0  0  0  0  0  0
    0.7186   -2.7021    2.8157 H   0  0  0  0  0  0  0  0  0  0  0  0
    1.2832   -0.0770    0.2896 H   0  0  0  0  0  0  0  0  0  0  0  0
    3.7885   -0.2602    0.6888 H   0  0  0  0  0  0  0  0  0  0  0  0
    4.5167   -1.9042    0.7300 H   0  0  0  0  0  0  0  0  0  0  0  0
    3.0171   -0.6609   -1.6622 H   0  0  0  0  0  0  0  0  0  0  0  0
    3.7811   -2.2998   -1.6369 H   0  0  0  0  0  0  0  0  0  0  0  0
    5.8861   -1.3334   -1.2845 H   0  0  0  0  0  0  0  0  0  0  0  0
    4.9215   -1.4166   -3.6130 H   0  0  0  0  0  0  0  0  0  0  0  0
    3.4558    0.8742   -3.4524 H   0  0  0  0  0  0  0  0  0  0  0  0
    5.0457    2.5805   -4.4755 H   0  0  0  0  0  0  0  0  0  0  0  0
    7.8823    2.6365   -4.9564 H   0  0  0  0  0  0  0  0  0  0  0  0
    9.9952    1.3236   -4.7267 H   0  0  0  0  0  0  0  0  0  0  0  0
    9.9500   -0.9399   -3.6966 H   0  0  0  0  0  0  0  0  0  0  0  0
    7.7965   -1.9034   -2.8838 H   0  0  0  0  0  0  0  0  0  0  0  0
   -1.1363   -0.2139   -0.1519 H   0  0  0  0  0  0  0  0  0  0  0  0
   -1.9281    2.5748    1.6272 H   0  0  0  0  0  0  0  0  0  0  0  0
   -5.3549    4.1002    4.3238 H   0  0  0  0  0  0  0  0  0  0  0  0
   -7.6028    3.8514    5.3269 H   0  0  0  0  0  0  0  0  0  0  0  0
   -8.9801    1.8568    4.8177 H   0  0  0  0  0  0  0  0  0  0  0  0
   -8.1290    0.1056    3.3131 H   0  0  0  0  0  0  0  0  0  0  0  0
  1  2  1  0
  2  3  1  0
  3  4  1  0
  4  5  2  0
  5  6  1  0
  6  7  2  0
  7  8  1  0
  8  9  1  0
  9 10  1  0
 10 11  2  0
 10 12  1  0
 12 13  1  0
 13 14  1  0
 14 15  1  0
 15 16  1  0
 16 17  2  0
 17 18  1  0
 18 19  2  0
 19 20  1  0
 20 21  2  0
 21 22  1  0
 22 23  2  0
  8 24  2  0
  3 25  1  0
 25 26  2  0
 26 27  1  0
 26 28  1  0
 28 29  1  0
 29 30  2  0
 30 31  1  0
 31 32  2  0
 32 33  1  0
 33 34  2  0
 34 35  1  0
 35 36  2  0
 23 15  1  0
 23 18  1  0
 24  4  1  0
 34 29  1  0
 35 25  1  0
  1 37  1  0
  1 38  1  0
  1 39  1  0
  2 40  1  0
  2 41  1  0
  3 42  1  0
  5 43  1  0
  6 44  1  0
  7 45  1  0
  9 46  1  0
 12 47  1  0
 12 48  1  0
 13 49  1  0
 13 50  1  0
 14 51  1  0
 15 52  1  0
 16 53  1  0
 17 54  1  0
 19 55  1  0
 20 56  1  0
 21 57  1  0
 22 58  1  0
 24 59  1  0
 27 60  1  0
 30 61  1  0
 31 62  1  0
 32 63  1  0
 33 64  1  0
M  END
$$$$
