
     RDKit          3D

 73 74  0  0  0  0  0  0  0  0999 V2000
    2.5832   -4.5964    2.9226 C   0  0  0  0  0  0  0  0  0  0  0  0
    2.3492   -3.4629    1.9787 C   0  0  0  0  0  0  0  0  0  0  0  0
    1.4302   -3.5512    1.1205 O   0  0  0  0  0  0  0  0  0  0  0  0
    3.1559   -2.2763    2.0750 N   0  0  0  0  0  0  0  0  0  0  0  0
    3.0712   -1.1283    1.1579 C   0  0  1  0  0  0  0  0  0  0  0  0
    3.3529   -1.5450   -0.3002 C   0  0  0  0  0  0  0  0  0  0  0  0
    4.6950   -2.2048   -0.4296 C   0  0  0  0  0  0  0  0  0  0  0  0
    4.8036   -3.6276   -0.4763 N   0  0  0  0  0  0  0  0  0  0  0  0
    5.7374   -1.4981   -0.4659 O   0  0  0  0  0  0  0  0  0  0  0  0
    1.7465   -0.4111    1.2811 C   0  0  0  0  0  0  0  0  0  0  0  0
    0.8160   -0.9079    1.9732 O   0  0  0  0  0  0  0  0  0  0  0  0
    1.5531    0.8487    0.6175 N   0  0  0  0  0  0  0  0  0  0  0  0
    0.2315    1.4710    0.4680 C   0  0  1  0  0  0  0  0  0  0  0  0
    0.2888    2.9470    0.9048 C   0  0  0  0  0  0  0  0  0  0  0  0
    1.4187    3.9484   -0.1298 S   0  0  0  0  0  0  0  0  0  0  0  0
    1.0891    5.4658    0.7667 C   0  0  0  0  0  0  0  0  0  0  0  0
    1.8765    5.8132    1.8718 C   0  0  0  0  0  0  0  0  0  0  0  0
    1.6192    6.9976    2.5698 C   0  0  0  0  0  0  0  0  0  0  0  0
    0.5773    7.8375    2.1633 C   0  0  0  0  0  0  0  0  0  0  0  0
   -0.2076    7.4937    1.0579 C   0  0  0  0  0  0  0  0  0  0  0  0
    0.0483    6.3097    0.3587 C   0  0  0  0  0  0  0  0  0  0  0  0
   -0.2964    1.2962   -0.9817 C   0  0  2  0  0  0  0  0  0  0  0  0
   -1.5733    1.8738   -1.1115 O   0  0  0  0  0  0  0  0  0  0  0  0
   -0.3253   -0.1903   -1.4020 C   0  0  0  0  0  0  0  0  0  0  0  0
   -0.9852   -0.3797   -2.7526 C   0  0  0  0  0  0  0  0  0  0  0  0
   -0.2383   -0.0671   -3.9030 C   0  0  0  0  0  0  0  0  0  0  0  0
   -0.8222   -0.1220   -5.1695 C   0  0  0  0  0  0  0  0  0  0  0  0
   -2.1635   -0.4756   -5.3060 C   0  0  0  0  0  0  0  0  0  0  0  0
   -2.9234   -0.7862   -4.1775 C   0  0  0  0  0  0  0  0  0  0  0  0
   -2.3474   -0.7568   -2.8966 C   0  0  0  0  0  0  0  0  0  0  0  0
   -3.1957   -1.1220   -1.7447 C   0  0  0  0  0  0  0  0  0  0  0  0
   -4.2807   -0.5070   -1.5654 O   0  0  0  0  0  0  0  0  0  0  0  0
   -2.8143   -2.2077   -0.8805 N   0  0  0  0  0  0  0  0  0  0  0  0
   -3.4061   -2.4822    0.4432 C   0  0  0  0  0  0  0  0  0  0  0  0
   -2.6202   -3.6263    1.1158 C   0  0  0  0  0  0  0  0  0  0  0  0
   -4.8749   -2.9193    0.2871 C   0  0  0  0  0  0  0  0  0  0  0  0
   -3.3121   -1.2327    1.3417 C   0  0  0  0  0  0  0  0  0  0  0  0
    3.6554   -4.8831    2.9015 H   0  0  0  0  0  0  0  0  0  0  0  0
    2.3077   -4.2839    3.9512 H   0  0  0  0  0  0  0  0  0  0  0  0
    1.9712   -5.4778    2.6353 H   0  0  0  0  0  0  0  0  0  0  0  0
    3.8723   -2.2340    2.8351 H   0  0  0  0  0  0  0  0  0  0  0  0
    3.8551   -0.3955    1.4539 H   0  0  0  0  0  0  0  0  0  0  0  0
    3.3452   -0.6468   -0.9546 H   0  0  0  0  0  0  0  0  0  0  0  0
    2.5602   -2.2223   -0.6801 H   0  0  0  0  0  0  0  0  0  0  0  0
    5.7411   -4.0817   -0.5467 H   0  0  0  0  0  0  0  0  0  0  0  0
    3.9522   -4.2307   -0.4419 H   0  0  0  0  0  0  0  0  0  0  0  0
    2.3613    1.2667    0.1042 H   0  0  0  0  0  0  0  0  0  0  0  0
   -0.4928    0.9777    1.1529 H   0  0  0  0  0  0  0  0  0  0  0  0
    0.6336    2.9935    1.9605 H   0  0  0  0  0  0  0  0  0  0  0  0
   -0.7313    3.3862    0.8634 H   0  0  0  0  0  0  0  0  0  0  0  0
    2.6836    5.1663    2.1914 H   0  0  0  0  0  0  0  0  0  0  0  0
    2.2266    7.2644    3.4249 H   0  0  0  0  0  0  0  0  0  0  0  0
    0.3786    8.7538    2.7040 H   0  0  0  0  0  0  0  0  0  0  0  0
   -1.0135    8.1442    0.7434 H   0  0  0  0  0  0  0  0  0  0  0  0
   -0.5631    6.0479   -0.4956 H   0  0  0  0  0  0  0  0  0  0  0  0
    0.3877    1.8248   -1.6797 H   0  0  0  0  0  0  0  0  0  0  0  0
   -2.1836    1.3915   -0.4941 H   0  0  0  0  0  0  0  0  0  0  0  0
    0.7154   -0.5735   -1.4655 H   0  0  0  0  0  0  0  0  0  0  0  0
   -0.8157   -0.7851   -0.6115 H   0  0  0  0  0  0  0  0  0  0  0  0
    0.7981    0.2360   -3.8162 H   0  0  0  0  0  0  0  0  0  0  0  0
   -0.2360    0.1222   -6.0460 H   0  0  0  0  0  0  0  0  0  0  0  0
   -2.6158   -0.5100   -6.2887 H   0  0  0  0  0  0  0  0  0  0  0  0
   -3.9625   -1.0659   -4.3045 H   0  0  0  0  0  0  0  0  0  0  0  0
   -2.0194   -2.8050   -1.2067 H   0  0  0  0  0  0  0  0  0  0  0  0
   -3.0358   -3.8581    2.1205 H   0  0  0  0  0  0  0  0  0  0  0  0
   -2.6684   -4.5477    0.4960 H   0  0  0  0  0  0  0  0  0  0  0  0
   -1.5518   -3.3437    1.2359 H   0  0  0  0  0  0  0  0  0  0  0  0
   -5.5074   -2.0927   -0.0949 H   0  0  0  0  0  0  0  0  0  0  0  0
   -4.9487   -3.7728   -0.4207 H   0  0  0  0  0  0  0  0  0  0  0  0
   -5.2946   -3.2363    1.2663 H   0  0  0  0  0  0  0  0  0  0  0  0
   -3.6919   -1.4561    2.3621 H   0  0  0  0  0  0  0  0  0  0  0  0
   -2.2570   -0.8966    1.4272 H   0  0  0  0  0  0  0  0  0  0  0  0
   -3.9132   -0.3939    0.9352 H   0  0  0  0  0  0  0  0  0  0  0  0
  1  2  1  0
  2  3  2  0
  2  4  1  0
  4  5  1  0
  5  6  1  0
  6  7  1  0
  7  8  1  0
  7  9  2  0
  5 10  1  0
 10 11  2  0
 10 12  1  0
 12 13  1  0
 13 14  1  0
 14 15  1  0
 15 16  1  0
 16 17  2  0
 17 18  1  0
 18 19  2  0
 19 20  1  0
 20 21  2  0
 13 22  1  0
 22 23  1  0
 22 24  1  0
 24 25  1  0
 25 26  2  0
 26 27  1  0
 27 28  2  0
 28 29  1  0
 29 30  2  0
 30 31  1  0
 31 32  2  0
 31 33  1  0
 33 34  1  0
 34 35  1  0
 34 36  1  0
 34 37  1  0
 21 16  1  0
 30 25  1  0
  1 38  1  0
  1 39  1  0
  1 40  1  0
  4 41  1  0
  5 42  1  1
  6 43  1  0
  6 44  1  0
  8 45  1  0
  8 46  1  0
 12 47  1  0
 13 48  1  1
 14 49  1  0
 14 50  1  0
 17 51  1  0
 18 52  1  0
 19 53  1  0
 20 54  1  0
 21 55  1  0
 22 56  1  6
 23 57  1  0
 24 58  1  0
 24 59  1  0
 26 60  1  0
 27 61  1  0
 28 62  1  0
 29 63  1  0
 33 64  1  0
 35 65  1  0
 35 66  1  0
 35 67  1  0
 36 68  1  0
 36 69  1  0
 36 70  1  0
 37 71  1  0
 37 72  1  0
 37 73  1  0
M  END
$$$$
