
     RDKit          3D

 84 87  0  0  0  0  0  0  0  0999 V2000
   -3.1925    1.0118    3.6740 C   0  0  0  0  0  0  0  0  0  0  0  0
   -3.9544    2.2449    3.1504 C   0  0  0  0  0  0  0  0  0  0  0  0
   -3.0323    3.4715    3.2280 C   0  0  0  0  0  0  0  0  0  0  0  0
   -4.5288    2.0733    1.7017 C   0  0  0  0  0  0  0  0  0  0  0  0
   -3.6406    1.2511    0.8669 N   0  0  0  0  0  0  0  0  0  0  0  0
   -2.6636    1.8114   -0.0242 C   0  0  0  0  0  0  0  0  0  0  0  0
   -2.6056    3.0568   -0.2129 O   0  0  0  0  0  0  0  0  0  0  0  0
   -1.6661    0.9209   -0.6968 C   0  0  0  0  0  0  0  0  0  0  0  0
   -0.4673    0.6926    0.2326 C   0  0  2  0  0  0  0  0  0  0  0  0
    0.7319    1.1728   -0.3342 O   0  0  0  0  0  0  0  0  0  0  0  0
    0.6302   -0.2255   -0.1825 C   0  0  2  0  0  0  0  0  0  0  0  0
    0.6067   -0.9356   -1.5473 C   0  0  2  0  0  0  0  0  0  0  0  0
   -0.0076   -2.3354   -1.3864 C   0  0  0  0  0  0  0  0  0  0  0  0
   -0.0931   -3.0490   -2.7108 C   0  0  0  0  0  0  0  0  0  0  0  0
   -1.1285   -2.7454   -3.6105 C   0  0  0  0  0  0  0  0  0  0  0  0
   -1.1886   -3.3803   -4.8549 C   0  0  0  0  0  0  0  0  0  0  0  0
   -0.2151   -4.3177   -5.2109 C   0  0  0  0  0  0  0  0  0  0  0  0
    0.8215   -4.6203   -4.3239 C   0  0  0  0  0  0  0  0  0  0  0  0
    0.8874   -3.9854   -3.0798 C   0  0  0  0  0  0  0  0  0  0  0  0
    1.9826   -1.0458   -2.0359 N   0  0  0  0  0  0  0  0  0  0  0  0
    2.5558   -0.0790   -2.9290 C   0  0  0  0  0  0  0  0  0  0  0  0
    1.8167    0.5988   -3.6932 O   0  0  0  0  0  0  0  0  0  0  0  0
    4.0465    0.1417   -2.9502 C   0  0  0  0  0  0  0  0  0  0  0  0
    4.7716   -1.0371   -3.6248 C   0  0  0  0  0  0  0  0  0  0  0  0
    4.4316   -1.1309   -5.0845 C   0  0  0  0  0  0  0  0  0  0  0  0
    3.3398   -1.9390   -5.5231 N   0  0  0  0  0  0  0  0  0  0  0  0
    5.0904   -0.4622   -5.9248 O   0  0  0  0  0  0  0  0  0  0  0  0
    4.5205    0.3145   -1.5742 N   0  0  0  0  0  0  0  0  0  0  0  0
    4.1287    1.4544   -0.7947 C   0  0  0  0  0  0  0  0  0  0  0  0
    3.9106    2.5565   -1.3683 O   0  0  0  0  0  0  0  0  0  0  0  0
    3.9255    1.3273    0.6630 C   0  0  0  0  0  0  0  0  0  0  0  0
    3.5426    2.4333    1.4407 C   0  0  0  0  0  0  0  0  0  0  0  0
    3.2943    2.2678    2.8048 C   0  0  0  0  0  0  0  0  0  0  0  0
    3.4249    1.0028    3.3886 C   0  0  0  0  0  0  0  0  0  0  0  0
    3.1739    0.7992    4.7538 C   0  0  0  0  0  0  0  0  0  0  0  0
    3.3085   -0.4794    5.3050 C   0  0  0  0  0  0  0  0  0  0  0  0
    3.6927   -1.5566    4.4993 C   0  0  0  0  0  0  0  0  0  0  0  0
    3.9449   -1.3615    3.1376 C   0  0  0  0  0  0  0  0  0  0  0  0
    3.8136   -0.0858    2.5778 C   0  0  0  0  0  0  0  0  0  0  0  0
    4.0486    0.1059    1.2527 N   0  0  0  0  0  0  0  0  0  0  0  0
   -5.9929    1.5355    1.6270 C   0  0  0  0  0  0  0  0  0  0  0  0
   -6.2330    0.2298    2.3992 C   0  0  0  0  0  0  0  0  0  0  0  0
   -7.0171    2.5984    2.0597 C   0  0  0  0  0  0  0  0  0  0  0  0
   -3.8062    0.0937    3.6124 H   0  0  0  0  0  0  0  0  0  0  0  0
   -2.2564    0.8495    3.0997 H   0  0  0  0  0  0  0  0  0  0  0  0
   -2.9207    1.1614    4.7408 H   0  0  0  0  0  0  0  0  0  0  0  0
   -4.7900    2.4378    3.8548 H   0  0  0  0  0  0  0  0  0  0  0  0
   -2.1593    3.3497    2.5519 H   0  0  0  0  0  0  0  0  0  0  0  0
   -2.6618    3.6109    4.2662 H   0  0  0  0  0  0  0  0  0  0  0  0
   -3.5865    4.3904    2.9404 H   0  0  0  0  0  0  0  0  0  0  0  0
   -4.5840    3.0846    1.2404 H   0  0  0  0  0  0  0  0  0  0  0  0
   -3.6343    0.2159    1.0057 H   0  0  0  0  0  0  0  0  0  0  0  0
   -1.3514    1.3918   -1.6542 H   0  0  0  0  0  0  0  0  0  0  0  0
   -2.1480   -0.0516   -0.9305 H   0  0  0  0  0  0  0  0  0  0  0  0
   -0.5327    0.9275    1.3163 H   0  0  0  0  0  0  0  0  0  0  0  0
    1.3080   -0.5959    0.6154 H   0  0  0  0  0  0  0  0  0  0  0  0
   -0.0038   -0.3728   -2.2843 H   0  0  0  0  0  0  0  0  0  0  0  0
   -1.0292   -2.2480   -0.9565 H   0  0  0  0  0  0  0  0  0  0  0  0
    0.5936   -2.9326   -0.6651 H   0  0  0  0  0  0  0  0  0  0  0  0
   -1.8842   -2.0149   -3.3489 H   0  0  0  0  0  0  0  0  0  0  0  0
   -1.9884   -3.1433   -5.5445 H   0  0  0  0  0  0  0  0  0  0  0  0
   -0.2619   -4.8068   -6.1753 H   0  0  0  0  0  0  0  0  0  0  0  0
    1.5790   -5.3410   -4.6036 H   0  0  0  0  0  0  0  0  0  0  0  0
    1.7041   -4.2191   -2.4082 H   0  0  0  0  0  0  0  0  0  0  0  0
    2.6293   -1.6909   -1.5270 H   0  0  0  0  0  0  0  0  0  0  0  0
    4.2804    1.0667   -3.5246 H   0  0  0  0  0  0  0  0  0  0  0  0
    4.5161   -1.9932   -3.1182 H   0  0  0  0  0  0  0  0  0  0  0  0
    5.8697   -0.8942   -3.5240 H   0  0  0  0  0  0  0  0  0  0  0  0
    2.7686   -2.4782   -4.8363 H   0  0  0  0  0  0  0  0  0  0  0  0
    3.0950   -1.9911   -6.5366 H   0  0  0  0  0  0  0  0  0  0  0  0
    4.9814   -0.4905   -1.0915 H   0  0  0  0  0  0  0  0  0  0  0  0
    3.4257    3.4142    0.9972 H   0  0  0  0  0  0  0  0  0  0  0  0
    2.9951    3.1231    3.3988 H   0  0  0  0  0  0  0  0  0  0  0  0
    2.8742    1.6234    5.3898 H   0  0  0  0  0  0  0  0  0  0  0  0
    3.1141   -0.6361    6.3581 H   0  0  0  0  0  0  0  0  0  0  0  0
    3.7942   -2.5439    4.9308 H   0  0  0  0  0  0  0  0  0  0  0  0
    4.2393   -2.2015    2.5205 H   0  0  0  0  0  0  0  0  0  0  0  0
   -6.2045    1.3190    0.5555 H   0  0  0  0  0  0  0  0  0  0  0  0
   -7.2597   -0.1428    2.1957 H   0  0  0  0  0  0  0  0  0  0  0  0
   -5.5259   -0.5602    2.0749 H   0  0  0  0  0  0  0  0  0  0  0  0
   -6.1402    0.3902    3.4936 H   0  0  0  0  0  0  0  0  0  0  0  0
   -8.0487    2.2292    1.8750 H   0  0  0  0  0  0  0  0  0  0  0  0
   -6.8828    3.5310    1.4715 H   0  0  0  0  0  0  0  0  0  0  0  0
   -6.9221    2.8377    3.1388 H   0  0  0  0  0  0  0  0  0  0  0  0
  1  2  1  0
  2  3  1  0
  2  4  1  0
  4  5  1  0
  5  6  1  0
  6  7  2  0
  6  8  1  0
  8  9  1  0
  9 10  1  0
 10 11  1  0
 11 12  1  0
 12 13  1  0
 13 14  1  0
 14 15  2  0
 15 16  1  0
 16 17  2  0
 17 18  1  0
 18 19  2  0
 12 20  1  0
 20 21  1  0
 21 22  2  0
 21 23  1  0
 23 24  1  0
 24 25  1  0
 25 26  1  0
 25 27  2  0
 23 28  1  0
 28 29  1  0
 29 30  2  0
 29 31  1  0
 31 32  2  0
 32 33  1  0
 33 34  2  0
 34 35  1  0
 35 36  2  0
 36 37  1  0
 37 38  2  0
 38 39  1  0
 39 40  2  0
  4 41  1  0
 41 42  1  0
 41 43  1  0
 11  9  1  0
 19 14  1  0
 39 34  1  0
 40 31  1  0
  1 44  1  0
  1 45  1  0
  1 46  1  0
  2 47  1  0
  3 48  1  0
  3 49  1  0
  3 50  1  0
  4 51  1  0
  5 52  1  0
  8 53  1  0
  8 54  1  0
  9 55  1  1
 11 56  1  1
 12 57  1  6
 13 58  1  0
 13 59  1  0
 15 60  1  0
 16 61  1  0
 17 62  1  0
 18 63  1  0
 19 64  1  0
 20 65  1  0
 23 66  1  0
 24 67  1  0
 24 68  1  0
 26 69  1  0
 26 70  1  0
 28 71  1  0
 32 72  1  0
 33 73  1  0
 35 74  1  0
 36 75  1  0
 37 76  1  0
 38 77  1  0
 41 78  1  0
 42 79  1  0
 42 80  1  0
 42 81  1  0
 43 82  1  0
 43 83  1  0
 43 84  1  0
M  END
$$$$
