
     RDKit          3D

 73 74  0  0  0  0  0  0  0  0999 V2000
   -4.6056   -3.4847    2.2024 C   0  0  0  0  0  0  0  0  0  0  0  0
   -3.5326   -3.6923    1.1844 C   0  0  0  0  0  0  0  0  0  0  0  0
   -2.5124   -4.3702    1.4838 O   0  0  0  0  0  0  0  0  0  0  0  0
   -3.6496   -3.0893   -0.1116 N   0  0  0  0  0  0  0  0  0  0  0  0
   -2.5816   -3.1826   -1.1134 C   0  0  1  0  0  0  0  0  0  0  0  0
   -3.0728   -2.7172   -2.4958 C   0  0  0  0  0  0  0  0  0  0  0  0
   -4.1424   -3.6262   -3.0283 C   0  0  0  0  0  0  0  0  0  0  0  0
   -5.5191   -3.2577   -2.9424 N   0  0  0  0  0  0  0  0  0  0  0  0
   -3.8244   -4.7365   -3.5320 O   0  0  0  0  0  0  0  0  0  0  0  0
   -1.4081   -2.3459   -0.6818 C   0  0  0  0  0  0  0  0  0  0  0  0
   -0.2489   -2.8399   -0.7207 O   0  0  0  0  0  0  0  0  0  0  0  0
   -1.6042   -0.9926   -0.2436 N   0  0  0  0  0  0  0  0  0  0  0  0
   -0.5133   -0.1773    0.3040 C   0  0  1  0  0  0  0  0  0  0  0  0
   -0.8772    1.3170    0.1833 C   0  0  0  0  0  0  0  0  0  0  0  0
   -0.9010    1.8271   -1.5703 S   0  0  0  0  0  0  0  0  0  0  0  0
   -0.9248    3.5776   -1.1808 C   0  0  0  0  0  0  0  0  0  0  0  0
    0.2797    4.2810   -1.0521 C   0  0  0  0  0  0  0  0  0  0  0  0
    0.2655    5.6392   -0.7209 C   0  0  0  0  0  0  0  0  0  0  0  0
   -0.9521    6.2988   -0.5256 C   0  0  0  0  0  0  0  0  0  0  0  0
   -2.1562    5.5999   -0.6613 C   0  0  0  0  0  0  0  0  0  0  0  0
   -2.1435    4.2401   -0.9889 C   0  0  0  0  0  0  0  0  0  0  0  0
   -0.2214   -0.6141    1.7714 C   0  0  2  0  0  0  0  0  0  0  0  0
   -1.0644    0.0445    2.6828 O   0  0  0  0  0  0  0  0  0  0  0  0
    1.2586   -0.4467    2.1887 C   0  0  0  0  0  0  0  0  0  0  0  0
    1.7311    0.9945    2.2516 C   0  0  0  0  0  0  0  0  0  0  0  0
    1.3356    1.7764    3.3531 C   0  0  0  0  0  0  0  0  0  0  0  0
    1.6423    3.1367    3.4114 C   0  0  0  0  0  0  0  0  0  0  0  0
    2.3488    3.7392    2.3726 C   0  0  0  0  0  0  0  0  0  0  0  0
    2.7690    2.9798    1.2808 C   0  0  0  0  0  0  0  0  0  0  0  0
    2.4843    1.6061    1.2120 C   0  0  0  0  0  0  0  0  0  0  0  0
    2.9689    0.8597    0.0360 C   0  0  0  0  0  0  0  0  0  0  0  0
    2.6273    1.2446   -1.1140 O   0  0  0  0  0  0  0  0  0  0  0  0
    3.8711   -0.2483    0.2045 N   0  0  0  0  0  0  0  0  0  0  0  0
    4.2773   -1.1776   -0.8675 C   0  0  0  0  0  0  0  0  0  0  0  0
    3.0365   -1.8503   -1.4857 C   0  0  0  0  0  0  0  0  0  0  0  0
    5.0762   -0.4273   -1.9508 C   0  0  0  0  0  0  0  0  0  0  0  0
    5.1790   -2.2744   -0.2650 C   0  0  0  0  0  0  0  0  0  0  0  0
   -5.5991   -3.6712    1.7436 H   0  0  0  0  0  0  0  0  0  0  0  0
   -4.4709   -4.1795    3.0585 H   0  0  0  0  0  0  0  0  0  0  0  0
   -4.5641   -2.4394    2.5731 H   0  0  0  0  0  0  0  0  0  0  0  0
   -4.5041   -2.5230   -0.3167 H   0  0  0  0  0  0  0  0  0  0  0  0
   -2.2585   -4.2452   -1.1986 H   0  0  0  0  0  0  0  0  0  0  0  0
   -3.4558   -1.6749   -2.4383 H   0  0  0  0  0  0  0  0  0  0  0  0
   -2.2216   -2.7190   -3.2120 H   0  0  0  0  0  0  0  0  0  0  0  0
   -5.8036   -2.3439   -2.5252 H   0  0  0  0  0  0  0  0  0  0  0  0
   -6.2592   -3.9015   -3.3000 H   0  0  0  0  0  0  0  0  0  0  0  0
   -2.5691   -0.5925   -0.2898 H   0  0  0  0  0  0  0  0  0  0  0  0
    0.3960   -0.3529   -0.3111 H   0  0  0  0  0  0  0  0  0  0  0  0
   -0.1455    1.9416    0.7256 H   0  0  0  0  0  0  0  0  0  0  0  0
   -1.8767    1.5115    0.6283 H   0  0  0  0  0  0  0  0  0  0  0  0
    1.2247    3.7754   -1.2013 H   0  0  0  0  0  0  0  0  0  0  0  0
    1.1973    6.1796   -0.6150 H   0  0  0  0  0  0  0  0  0  0  0  0
   -0.9628    7.3503   -0.2694 H   0  0  0  0  0  0  0  0  0  0  0  0
   -3.0982    6.1109   -0.5097 H   0  0  0  0  0  0  0  0  0  0  0  0
   -3.0780    3.7021   -1.0855 H   0  0  0  0  0  0  0  0  0  0  0  0
   -0.4140   -1.7102    1.8506 H   0  0  0  0  0  0  0  0  0  0  0  0
   -1.9744   -0.3321    2.5552 H   0  0  0  0  0  0  0  0  0  0  0  0
    1.3895   -0.9007    3.1956 H   0  0  0  0  0  0  0  0  0  0  0  0
    1.8867   -1.0591    1.5149 H   0  0  0  0  0  0  0  0  0  0  0  0
    0.7694    1.3342    4.1635 H   0  0  0  0  0  0  0  0  0  0  0  0
    1.3215    3.7271    4.2599 H   0  0  0  0  0  0  0  0  0  0  0  0
    2.5766    4.7965    2.4155 H   0  0  0  0  0  0  0  0  0  0  0  0
    3.3276    3.4639    0.4886 H   0  0  0  0  0  0  0  0  0  0  0  0
    4.2342   -0.4106    1.1723 H   0  0  0  0  0  0  0  0  0  0  0  0
    2.3826   -1.1111   -1.9919 H   0  0  0  0  0  0  0  0  0  0  0  0
    2.4437   -2.3575   -0.6953 H   0  0  0  0  0  0  0  0  0  0  0  0
    3.3374   -2.6082   -2.2409 H   0  0  0  0  0  0  0  0  0  0  0  0
    5.9207    0.1285   -1.4896 H   0  0  0  0  0  0  0  0  0  0  0  0
    5.4894   -1.1409   -2.6962 H   0  0  0  0  0  0  0  0  0  0  0  0
    4.4405    0.2953   -2.5011 H   0  0  0  0  0  0  0  0  0  0  0  0
    6.0883   -1.8236    0.1883 H   0  0  0  0  0  0  0  0  0  0  0  0
    5.4991   -2.9996   -1.0444 H   0  0  0  0  0  0  0  0  0  0  0  0
    4.6347   -2.8311    0.5284 H   0  0  0  0  0  0  0  0  0  0  0  0
  1  2  1  0
  2  3  2  0
  2  4  1  0
  4  5  1  0
  5  6  1  0
  6  7  1  0
  7  8  1  0
  7  9  2  0
  5 10  1  0
 10 11  2  0
 10 12  1  0
 12 13  1  0
 13 14  1  0
 14 15  1  0
 15 16  1  0
 16 17  2  0
 17 18  1  0
 18 19  2  0
 19 20  1  0
 20 21  2  0
 13 22  1  0
 22 23  1  0
 22 24  1  0
 24 25  1  0
 25 26  2  0
 26 27  1  0
 27 28  2  0
 28 29  1  0
 29 30  2  0
 30 31  1  0
 31 32  2  0
 31 33  1  0
 33 34  1  0
 34 35  1  0
 34 36  1  0
 34 37  1  0
 21 16  1  0
 30 25  1  0
  1 38  1  0
  1 39  1  0
  1 40  1  0
  4 41  1  0
  5 42  1  6
  6 43  1  0
  6 44  1  0
  8 45  1  0
  8 46  1  0
 12 47  1  0
 13 48  1  6
 14 49  1  0
 14 50  1  0
 17 51  1  0
 18 52  1  0
 19 53  1  0
 20 54  1  0
 21 55  1  0
 22 56  1  6
 23 57  1  0
 24 58  1  0
 24 59  1  0
 26 60  1  0
 27 61  1  0
 28 62  1  0
 29 63  1  0
 33 64  1  0
 35 65  1  0
 35 66  1  0
 35 67  1  0
 36 68  1  0
 36 69  1  0
 36 70  1  0
 37 71  1  0
 37 72  1  0
 37 73  1  0
M  END
$$$$
