
     RDKit          3D

 77 80  0  0  0  0  0  0  0  0999 V2000
    2.3168    4.2687    0.2422 C   0  0  0  0  0  0  0  0  0  0  0  0
    3.1799    3.8369    1.4034 C   0  0  0  0  0  0  0  0  0  0  0  0
    3.7686    4.8162    2.2342 C   0  0  0  0  0  0  0  0  0  0  0  0
    3.5781    6.1730    1.9697 O   0  0  0  0  0  0  0  0  0  0  0  0
    4.5479    4.4310    3.3319 C   0  0  0  0  0  0  0  0  0  0  0  0
    4.7585    3.0826    3.6073 C   0  0  0  0  0  0  0  0  0  0  0  0
    4.2045    2.1049    2.7829 C   0  0  0  0  0  0  0  0  0  0  0  0
    3.4226    2.4615    1.6703 C   0  0  0  0  0  0  0  0  0  0  0  0
    2.8917    1.3801    0.8047 C   0  0  0  0  0  0  0  0  0  0  0  0
    2.8982    1.5201   -0.4488 O   0  0  0  0  0  0  0  0  0  0  0  0
    2.3871    0.1672    1.3868 N   0  0  0  0  0  0  0  0  0  0  0  0
    1.8283   -0.9191    0.5752 C   0  0  2  0  0  0  0  0  0  0  0  0
    0.3271   -0.6354    0.3061 C   0  0  0  0  0  0  0  0  0  0  0  0
   -0.1101   -1.0124   -1.1250 C   0  0  2  0  0  0  0  0  0  0  0  0
    0.5236   -0.1500   -2.0384 O   0  0  0  0  0  0  0  0  0  0  0  0
   -1.6499   -0.9148   -1.2784 C   0  0  2  0  0  0  0  0  0  0  0  0
   -2.1366   -1.3858   -2.6643 C   0  0  0  0  0  0  0  0  0  0  0  0
   -1.9320   -2.8647   -2.8773 C   0  0  0  0  0  0  0  0  0  0  0  0
   -2.7879   -3.7917   -2.2589 C   0  0  0  0  0  0  0  0  0  0  0  0
   -2.6146   -5.1624   -2.4725 C   0  0  0  0  0  0  0  0  0  0  0  0
   -1.5859   -5.6173   -3.3011 C   0  0  0  0  0  0  0  0  0  0  0  0
   -0.7207   -4.7028   -3.9079 C   0  0  0  0  0  0  0  0  0  0  0  0
   -0.8896   -3.3312   -3.6963 C   0  0  0  0  0  0  0  0  0  0  0  0
   -2.0905    0.4689   -1.0647 N   0  0  0  0  0  0  0  0  0  0  0  0
   -2.6880    0.9186    0.1627 C   0  0  0  0  0  0  0  0  0  0  0  0
   -3.1129    0.0776    1.0008 O   0  0  0  0  0  0  0  0  0  0  0  0
   -2.7715    2.3682    0.4671 C   0  0  0  0  0  0  0  0  0  0  0  0
   -1.6813    3.1862    0.1228 C   0  0  0  0  0  0  0  0  0  0  0  0
   -1.6811    4.5438    0.4371 C   0  0  0  0  0  0  0  0  0  0  0  0
   -2.7646    5.1063    1.1062 C   0  0  0  0  0  0  0  0  0  0  0  0
   -3.8685    4.3184    1.4544 C   0  0  0  0  0  0  0  0  0  0  0  0
   -4.9402    4.9000    2.1331 O   0  0  0  0  0  0  0  0  0  0  0  0
   -3.8947    2.9459    1.1198 C   0  0  0  0  0  0  0  0  0  0  0  0
   -5.1061    2.1167    1.4741 C   0  0  0  0  0  0  0  0  0  0  0  0
    2.0520   -2.2574    1.3120 C   0  0  0  0  0  0  0  0  0  0  0  0
    1.6852   -3.4526    0.4712 C   0  0  0  0  0  0  0  0  0  0  0  0
    0.4715   -4.1292    0.6836 C   0  0  0  0  0  0  0  0  0  0  0  0
    0.1394   -5.2398   -0.0975 C   0  0  0  0  0  0  0  0  0  0  0  0
    1.0126   -5.6804   -1.0954 C   0  0  0  0  0  0  0  0  0  0  0  0
    2.2111   -5.0009   -1.3266 C   0  0  0  0  0  0  0  0  0  0  0  0
    2.5479   -3.8900   -0.5478 C   0  0  0  0  0  0  0  0  0  0  0  0
    1.4348    3.6034    0.1472 H   0  0  0  0  0  0  0  0  0  0  0  0
    1.9232    5.2976    0.3776 H   0  0  0  0  0  0  0  0  0  0  0  0
    2.9099    4.2360   -0.6954 H   0  0  0  0  0  0  0  0  0  0  0  0
    3.9902    6.8922    2.5526 H   0  0  0  0  0  0  0  0  0  0  0  0
    4.9940    5.1804    3.9733 H   0  0  0  0  0  0  0  0  0  0  0  0
    5.3646    2.7933    4.4563 H   0  0  0  0  0  0  0  0  0  0  0  0
    4.4101    1.0644    3.0022 H   0  0  0  0  0  0  0  0  0  0  0  0
    2.2484    0.1335    2.4227 H   0  0  0  0  0  0  0  0  0  0  0  0
    2.3902   -0.9655   -0.3847 H   0  0  0  0  0  0  0  0  0  0  0  0
    0.1270    0.4489    0.4514 H   0  0  0  0  0  0  0  0  0  0  0  0
   -0.3026   -1.1707    1.0502 H   0  0  0  0  0  0  0  0  0  0  0  0
    0.1939   -2.0672   -1.3100 H   0  0  0  0  0  0  0  0  0  0  0  0
    0.7644   -0.6892   -2.8360 H   0  0  0  0  0  0  0  0  0  0  0  0
   -2.1181   -1.5807   -0.5196 H   0  0  0  0  0  0  0  0  0  0  0  0
   -1.6352   -0.8017   -3.4666 H   0  0  0  0  0  0  0  0  0  0  0  0
   -3.2238   -1.1681   -2.7549 H   0  0  0  0  0  0  0  0  0  0  0  0
   -3.5925   -3.4515   -1.6189 H   0  0  0  0  0  0  0  0  0  0  0  0
   -3.2783   -5.8720   -1.9958 H   0  0  0  0  0  0  0  0  0  0  0  0
   -1.4526   -6.6786   -3.4650 H   0  0  0  0  0  0  0  0  0  0  0  0
    0.0824   -5.0573   -4.5408 H   0  0  0  0  0  0  0  0  0  0  0  0
   -0.2132   -2.6351   -4.1756 H   0  0  0  0  0  0  0  0  0  0  0  0
   -1.8603    1.1762   -1.7993 H   0  0  0  0  0  0  0  0  0  0  0  0
   -0.8125    2.7684   -0.3696 H   0  0  0  0  0  0  0  0  0  0  0  0
   -0.8312    5.1598    0.1724 H   0  0  0  0  0  0  0  0  0  0  0  0
   -2.7458    6.1594    1.3565 H   0  0  0  0  0  0  0  0  0  0  0  0
   -4.9428    5.8823    2.3824 H   0  0  0  0  0  0  0  0  0  0  0  0
   -5.3495    1.4116    0.6516 H   0  0  0  0  0  0  0  0  0  0  0  0
   -4.9080    1.5473    2.4061 H   0  0  0  0  0  0  0  0  0  0  0  0
   -6.0078    2.7451    1.6282 H   0  0  0  0  0  0  0  0  0  0  0  0
    3.1259   -2.3400    1.5899 H   0  0  0  0  0  0  0  0  0  0  0  0
    1.4803   -2.2649    2.2665 H   0  0  0  0  0  0  0  0  0  0  0  0
   -0.2153   -3.7984    1.4526 H   0  0  0  0  0  0  0  0  0  0  0  0
   -0.7947   -5.7596    0.0712 H   0  0  0  0  0  0  0  0  0  0  0  0
    0.7574   -6.5443   -1.6950 H   0  0  0  0  0  0  0  0  0  0  0  0
    2.8809   -5.3372   -2.1072 H   0  0  0  0  0  0  0  0  0  0  0  0
    3.4810   -3.3731   -0.7348 H   0  0  0  0  0  0  0  0  0  0  0  0
  1  2  1  0
  2  3  2  0
  3  4  1  0
  3  5  1  0
  5  6  2  0
  6  7  1  0
  7  8  2  0
  8  9  1  0
  9 10  2  0
  9 11  1  0
 11 12  1  0
 12 13  1  0
 13 14  1  0
 14 15  1  0
 14 16  1  0
 16 17  1  0
 17 18  1  0
 18 19  2  0
 19 20  1  0
 20 21  2  0
 21 22  1  0
 22 23  2  0
 16 24  1  0
 24 25  1  0
 25 26  2  0
 25 27  1  0
 27 28  2  0
 28 29  1  0
 29 30  2  0
 30 31  1  0
 31 32  1  0
 31 33  2  0
 33 34  1  0
 12 35  1  0
 35 36  1  0
 36 37  2  0
 37 38  1  0
 38 39  2  0
 39 40  1  0
 40 41  2  0
  8  2  1  0
 23 18  1  0
 33 27  1  0
 41 36  1  0
  1 42  1  0
  1 43  1  0
  1 44  1  0
  4 45  1  0
  5 46  1  0
  6 47  1  0
  7 48  1  0
 11 49  1  0
 12 50  1  6
 13 51  1  0
 13 52  1  0
 14 53  1  6
 15 54  1  0
 16 55  1  1
 17 56  1  0
 17 57  1  0
 19 58  1  0
 20 59  1  0
 21 60  1  0
 22 61  1  0
 23 62  1  0
 24 63  1  0
 28 64  1  0
 29 65  1  0
 30 66  1  0
 32 67  1  0
 34 68  1  0
 34 69  1  0
 34 70  1  0
 35 71  1  0
 35 72  1  0
 37 73  1  0
 38 74  1  0
 39 75  1  0
 40 76  1  0
 41 77  1  0
M  END
$$$$
