
     RDKit          3D

 74 77  0  0  0  0  0  0  0  0999 V2000
    3.9203    1.0862    6.3803 C   0  0  0  0  0  0  0  0  0  0  0  0
    4.2800    0.2253    5.3048 O   0  0  0  0  0  0  0  0  0  0  0  0
    4.1672    0.5637    3.9483 C   0  0  0  0  0  0  0  0  0  0  0  0
    3.6817    1.8143    3.5194 C   0  0  0  0  0  0  0  0  0  0  0  0
    3.5843    2.1018    2.1547 C   0  0  0  0  0  0  0  0  0  0  0  0
    3.9695    1.1481    1.2031 C   0  0  0  0  0  0  0  0  0  0  0  0
    3.8066    1.4834   -0.5193 S   0  0  0  0  0  0  0  0  0  0  0  0
    5.0401    1.0030   -1.2309 O   0  0  0  0  0  0  0  0  0  0  0  0
    3.6780    2.9644   -0.7462 O   0  0  0  0  0  0  0  0  0  0  0  0
    2.4079    0.6724   -1.1672 N   0  0  0  0  0  0  0  0  0  0  0  0
    1.1569    1.1679   -0.5343 C   0  0  0  0  0  0  0  0  0  0  0  0
    0.3468    0.0950    0.2448 C   0  0  1  0  0  0  0  0  0  0  0  0
    1.1004   -0.3865    1.3309 O   0  0  0  0  0  0  0  0  0  0  0  0
   -1.0274    0.6381    0.7270 C   0  0  2  0  0  0  0  0  0  0  0  0
   -1.7890   -0.3858    1.6033 C   0  0  0  0  0  0  0  0  0  0  0  0
   -2.1467   -1.6489    0.8553 C   0  0  0  0  0  0  0  0  0  0  0  0
   -3.3231   -1.7107    0.0884 C   0  0  0  0  0  0  0  0  0  0  0  0
   -3.6309   -2.8644   -0.6388 C   0  0  0  0  0  0  0  0  0  0  0  0
   -2.7685   -3.9635   -0.6072 C   0  0  0  0  0  0  0  0  0  0  0  0
   -1.5984   -3.9123    0.1548 C   0  0  0  0  0  0  0  0  0  0  0  0
   -1.2881   -2.7618    0.8859 C   0  0  0  0  0  0  0  0  0  0  0  0
   -1.8595    1.0333   -0.4164 N   0  0  0  0  0  0  0  0  0  0  0  0
   -2.9556    1.9458   -0.2931 C   0  0  0  0  0  0  0  0  0  0  0  0
   -3.1738    2.5367    0.8004 O   0  0  0  0  0  0  0  0  0  0  0  0
   -3.7844    2.1678   -1.3970 O   0  0  0  0  0  0  0  0  0  0  0  0
   -4.9520    2.9870   -1.3428 C   0  0  0  0  0  0  0  0  0  0  0  0
   -6.0599    2.3290   -0.5741 C   0  0  0  0  0  0  0  0  0  0  0  0
   -7.3037    2.8058   -1.2977 C   0  0  0  0  0  0  0  0  0  0  0  0
   -6.9615    3.2299   -2.5987 O   0  0  0  0  0  0  0  0  0  0  0  0
   -5.5600    3.1513   -2.7204 C   0  0  0  0  0  0  0  0  0  0  0  0
    2.5806   -0.6634   -0.9567 O   0  0  0  0  0  0  0  0  0  0  0  0
    2.3431   -1.3110   -2.1875 C   0  0  0  0  0  0  0  0  0  0  0  0
    3.6106   -1.3918   -3.0244 C   0  0  0  0  0  0  0  0  0  0  0  0
    3.4569   -2.6446   -3.8756 C   0  0  0  0  0  0  0  0  0  0  0  0
    2.4268   -3.5283   -3.1732 C   0  0  0  0  0  0  0  0  0  0  0  0
    1.9503   -2.7599   -1.9465 C   0  0  0  0  0  0  0  0  0  0  0  0
    4.4544   -0.0951    1.6280 C   0  0  0  0  0  0  0  0  0  0  0  0
    4.5521   -0.3833    2.9919 C   0  0  0  0  0  0  0  0  0  0  0  0
    2.8409    1.3405    6.3211 H   0  0  0  0  0  0  0  0  0  0  0  0
    4.1104    0.5653    7.3409 H   0  0  0  0  0  0  0  0  0  0  0  0
    4.5335    2.0116    6.3501 H   0  0  0  0  0  0  0  0  0  0  0  0
    3.3732    2.5677    4.2311 H   0  0  0  0  0  0  0  0  0  0  0  0
    3.1974    3.0634    1.8434 H   0  0  0  0  0  0  0  0  0  0  0  0
    1.3440    2.0309    0.1419 H   0  0  0  0  0  0  0  0  0  0  0  0
    0.5230    1.5669   -1.3526 H   0  0  0  0  0  0  0  0  0  0  0  0
    0.1478   -0.7537   -0.4425 H   0  0  0  0  0  0  0  0  0  0  0  0
    1.2180    0.3648    1.9689 H   0  0  0  0  0  0  0  0  0  0  0  0
   -0.8294    1.5370    1.3530 H   0  0  0  0  0  0  0  0  0  0  0  0
   -2.7188    0.0854    1.9896 H   0  0  0  0  0  0  0  0  0  0  0  0
   -1.1844   -0.6361    2.5020 H   0  0  0  0  0  0  0  0  0  0  0  0
   -3.9984   -0.8650    0.0498 H   0  0  0  0  0  0  0  0  0  0  0  0
   -4.5368   -2.9051   -1.2296 H   0  0  0  0  0  0  0  0  0  0  0  0
   -3.0067   -4.8547   -1.1733 H   0  0  0  0  0  0  0  0  0  0  0  0
   -0.9298   -4.7631    0.1768 H   0  0  0  0  0  0  0  0  0  0  0  0
   -0.3749   -2.7353    1.4668 H   0  0  0  0  0  0  0  0  0  0  0  0
   -1.7129    0.5733   -1.3436 H   0  0  0  0  0  0  0  0  0  0  0  0
   -4.7146    3.9872   -0.9136 H   0  0  0  0  0  0  0  0  0  0  0  0
   -5.9824    1.2208   -0.6472 H   0  0  0  0  0  0  0  0  0  0  0  0
   -6.0597    2.6378    0.4938 H   0  0  0  0  0  0  0  0  0  0  0  0
   -7.7533    3.6621   -0.7498 H   0  0  0  0  0  0  0  0  0  0  0  0
   -8.0557    1.9901   -1.3557 H   0  0  0  0  0  0  0  0  0  0  0  0
   -5.3078    2.2805   -3.3651 H   0  0  0  0  0  0  0  0  0  0  0  0
   -5.1739    4.0729   -3.2058 H   0  0  0  0  0  0  0  0  0  0  0  0
    1.5268   -0.8252   -2.7779 H   0  0  0  0  0  0  0  0  0  0  0  0
    3.7354   -0.4842   -3.6539 H   0  0  0  0  0  0  0  0  0  0  0  0
    4.4976   -1.5043   -2.3616 H   0  0  0  0  0  0  0  0  0  0  0  0
    4.4310   -3.1708   -3.9789 H   0  0  0  0  0  0  0  0  0  0  0  0
    3.0891   -2.3681   -4.8883 H   0  0  0  0  0  0  0  0  0  0  0  0
    1.5694   -3.7256   -3.8538 H   0  0  0  0  0  0  0  0  0  0  0  0
    2.8766   -4.5000   -2.8734 H   0  0  0  0  0  0  0  0  0  0  0  0
    2.4677   -3.1509   -1.0417 H   0  0  0  0  0  0  0  0  0  0  0  0
    0.8518   -2.8613   -1.8058 H   0  0  0  0  0  0  0  0  0  0  0  0
    4.7483   -0.8443    0.9037 H   0  0  0  0  0  0  0  0  0  0  0  0
    4.9251   -1.3492    3.3081 H   0  0  0  0  0  0  0  0  0  0  0  0
  1  2  1  0
  2  3  1  0
  3  4  2  0
  4  5  1  0
  5  6  2  0
  6  7  1  0
  7  8  2  0
  7  9  2  0
  7 10  1  0
 10 11  1  0
 11 12  1  0
 12 13  1  0
 12 14  1  0
 14 15  1  0
 15 16  1  0
 16 17  2  0
 17 18  1  0
 18 19  2  0
 19 20  1  0
 20 21  2  0
 14 22  1  0
 22 23  1  0
 23 24  2  0
 23 25  1  0
 25 26  1  0
 26 27  1  0
 27 28  1  0
 28 29  1  0
 29 30  1  0
 10 31  1  0
 31 32  1  0
 32 33  1  0
 33 34  1  0
 34 35  1  0
 35 36  1  0
  6 37  1  0
 37 38  2  0
 21 16  1  0
 30 26  1  0
 36 32  1  0
 38  3  1  0
  1 39  1  0
  1 40  1  0
  1 41  1  0
  4 42  1  0
  5 43  1  0
 11 44  1  0
 11 45  1  0
 12 46  1  6
 13 47  1  0
 14 48  1  1
 15 49  1  0
 15 50  1  0
 17 51  1  0
 18 52  1  0
 19 53  1  0
 20 54  1  0
 21 55  1  0
 22 56  1  0
 26 57  1  0
 27 58  1  0
 27 59  1  0
 28 60  1  0
 28 61  1  0
 30 62  1  0
 30 63  1  0
 32 64  1  0
 33 65  1  0
 33 66  1  0
 34 67  1  0
 34 68  1  0
 35 69  1  0
 35 70  1  0
 36 71  1  0
 36 72  1  0
 37 73  1  0
 38 74  1  0
M  END
$$$$
