
     RDKit          3D

 79 82  0  0  0  0  0  0  0  0999 V2000
    1.3407    1.4751    0.1774 C   0  0  0  0  0  0  0  0  0  0  0  0
    1.1712   -0.0511    0.0360 C   0  0  0  0  0  0  0  0  0  0  0  0
    0.8654   -0.6731    1.4071 C   0  0  0  0  0  0  0  0  0  0  0  0
    2.3485   -0.7906   -0.7237 C   0  0  0  0  0  0  0  0  0  0  0  0
    3.6833   -0.7893    0.0999 C   0  0  0  0  0  0  0  0  0  0  0  0
    3.9380   -2.0838    0.8948 C   0  0  0  0  0  0  0  0  0  0  0  0
    5.1495   -1.9354    1.7760 C   0  0  0  0  0  0  0  0  0  0  0  0
    6.4277   -2.2460    1.2838 C   0  0  0  0  0  0  0  0  0  0  0  0
    7.5551   -2.0740    2.0928 C   0  0  0  0  0  0  0  0  0  0  0  0
    7.4170   -1.5800    3.3971 C   0  0  0  0  0  0  0  0  0  0  0  0
    8.5329   -1.4046    4.2122 O   0  0  0  0  0  0  0  0  0  0  0  0
    6.1469   -1.2567    3.8858 C   0  0  0  0  0  0  0  0  0  0  0  0
    5.0180   -1.4278    3.0789 C   0  0  0  0  0  0  0  0  0  0  0  0
    2.6074   -0.1476   -2.1159 C   0  0  0  0  0  0  0  0  0  0  0  0
    1.4444   -0.3887   -3.0366 C   0  0  0  0  0  0  0  0  0  0  0  0
    1.2669    0.3715   -4.0230 O   0  0  0  0  0  0  0  0  0  0  0  0
    0.6047   -1.5904   -2.8549 C   0  0  0  0  0  0  0  0  0  0  0  0
   -0.9010   -1.8161   -3.8227 S   0  0  0  0  0  0  0  0  0  0  0  0
   -1.9372   -1.0056   -2.5769 C   0  0  0  0  0  0  0  0  0  0  0  0
   -2.2459   -1.8045   -1.4652 C   0  0  0  0  0  0  0  0  0  0  0  0
   -2.7646   -1.2584   -0.2897 C   0  0  0  0  0  0  0  0  0  0  0  0
   -2.9911   -2.1460    0.9043 C   0  0  0  0  0  0  0  0  0  0  0  0
   -2.9931    0.1226   -0.2188 C   0  0  0  0  0  0  0  0  0  0  0  0
   -3.4071    0.7280    1.0182 N   0  0  0  0  0  0  0  0  0  0  0  0
   -4.4893    1.6727    1.1093 C   0  0  0  0  0  0  0  0  0  0  0  0
   -5.1417    1.9811    0.0742 O   0  0  0  0  0  0  0  0  0  0  0  0
   -4.8603    2.2930    2.4035 C   0  0  0  0  0  0  0  0  0  0  0  0
   -4.6397    1.6369    3.6273 C   0  0  0  0  0  0  0  0  0  0  0  0
   -5.0071    2.2488    4.8272 C   0  0  0  0  0  0  0  0  0  0  0  0
   -5.5999    3.5109    4.7991 C   0  0  0  0  0  0  0  0  0  0  0  0
   -5.8208    4.1317    3.6111 N   0  0  0  0  0  0  0  0  0  0  0  0
   -5.4736    3.5579    2.4281 C   0  0  0  0  0  0  0  0  0  0  0  0
   -2.7784    0.9147   -1.3539 C   0  0  0  0  0  0  0  0  0  0  0  0
   -2.3256    0.3749   -2.5833 C   0  0  0  0  0  0  0  0  0  0  0  0
   -2.3637    1.3244   -3.8171 C   0  0  0  0  0  0  0  0  0  0  0  0
   -1.3895    2.5036   -3.5963 C   0  0  0  0  0  0  0  0  0  0  0  0
   -2.0223    0.6626   -5.1710 C   0  0  0  0  0  0  0  0  0  0  0  0
   -3.8006    1.8893   -3.9736 C   0  0  0  0  0  0  0  0  0  0  0  0
    0.9519   -2.4763   -1.9088 C   0  0  0  0  0  0  0  0  0  0  0  0
    0.3259   -3.7158   -1.8320 O   0  0  0  0  0  0  0  0  0  0  0  0
    1.9422   -2.1484   -0.9696 O   0  0  0  0  0  0  0  0  0  0  0  0
    1.2857    1.9715   -0.8127 H   0  0  0  0  0  0  0  0  0  0  0  0
    2.2923    1.7482    0.6734 H   0  0  0  0  0  0  0  0  0  0  0  0
    0.5078    1.8956    0.7811 H   0  0  0  0  0  0  0  0  0  0  0  0
    0.2420   -0.1852   -0.5574 H   0  0  0  0  0  0  0  0  0  0  0  0
    1.6861   -0.4733    2.1273 H   0  0  0  0  0  0  0  0  0  0  0  0
   -0.0705   -0.2397    1.8210 H   0  0  0  0  0  0  0  0  0  0  0  0
    0.7094   -1.7683    1.3127 H   0  0  0  0  0  0  0  0  0  0  0  0
    4.5580   -0.6520   -0.5737 H   0  0  0  0  0  0  0  0  0  0  0  0
    3.7132    0.0702    0.7986 H   0  0  0  0  0  0  0  0  0  0  0  0
    4.0958   -2.9288    0.1890 H   0  0  0  0  0  0  0  0  0  0  0  0
    3.0596   -2.3445    1.5194 H   0  0  0  0  0  0  0  0  0  0  0  0
    6.5504   -2.6190    0.2745 H   0  0  0  0  0  0  0  0  0  0  0  0
    8.5348   -2.3211    1.7041 H   0  0  0  0  0  0  0  0  0  0  0  0
    9.4663   -1.6285    3.8872 H   0  0  0  0  0  0  0  0  0  0  0  0
    6.0353   -0.8690    4.8904 H   0  0  0  0  0  0  0  0  0  0  0  0
    4.0424   -1.1633    3.4678 H   0  0  0  0  0  0  0  0  0  0  0  0
    2.8385    0.9345   -2.0391 H   0  0  0  0  0  0  0  0  0  0  0  0
    3.4892   -0.6313   -2.5900 H   0  0  0  0  0  0  0  0  0  0  0  0
   -2.0231   -2.8626   -1.4957 H   0  0  0  0  0  0  0  0  0  0  0  0
   -3.0517   -3.2148    0.6074 H   0  0  0  0  0  0  0  0  0  0  0  0
   -3.9460   -1.8820    1.4062 H   0  0  0  0  0  0  0  0  0  0  0  0
   -2.1530   -2.0232    1.6216 H   0  0  0  0  0  0  0  0  0  0  0  0
   -2.9002    0.4409    1.8837 H   0  0  0  0  0  0  0  0  0  0  0  0
   -4.2130    0.6441    3.6645 H   0  0  0  0  0  0  0  0  0  0  0  0
   -4.8409    1.7450    5.7706 H   0  0  0  0  0  0  0  0  0  0  0  0
   -5.8901    3.9953    5.7218 H   0  0  0  0  0  0  0  0  0  0  0  0
   -5.6663    4.0953    1.5084 H   0  0  0  0  0  0  0  0  0  0  0  0
   -2.9646    1.9747   -1.2646 H   0  0  0  0  0  0  0  0  0  0  0  0
   -1.7216    3.1604   -2.7658 H   0  0  0  0  0  0  0  0  0  0  0  0
   -0.3761    2.1332   -3.3461 H   0  0  0  0  0  0  0  0  0  0  0  0
   -1.3189    3.1359   -4.5079 H   0  0  0  0  0  0  0  0  0  0  0  0
   -0.9450    0.4254   -5.2500 H   0  0  0  0  0  0  0  0  0  0  0  0
   -2.2298    1.3567   -6.0147 H   0  0  0  0  0  0  0  0  0  0  0  0
   -2.6412   -0.2451   -5.3359 H   0  0  0  0  0  0  0  0  0  0  0  0
   -4.5314    1.0584   -4.0808 H   0  0  0  0  0  0  0  0  0  0  0  0
   -3.8800    2.5410   -4.8710 H   0  0  0  0  0  0  0  0  0  0  0  0
   -4.1081    2.5114   -3.1086 H   0  0  0  0  0  0  0  0  0  0  0  0
    0.5796   -4.3759   -1.1074 H   0  0  0  0  0  0  0  0  0  0  0  0
  1  2  1  0
  2  3  1  0
  2  4  1  0
  4  5  1  0
  5  6  1  0
  6  7  1  0
  7  8  2  0
  8  9  1  0
  9 10  2  0
 10 11  1  0
 10 12  1  0
 12 13  2  0
  4 14  1  0
 14 15  1  0
 15 16  2  0
 15 17  1  0
 17 18  1  0
 18 19  1  0
 19 20  2  0
 20 21  1  0
 21 22  1  0
 21 23  2  0
 23 24  1  0
 24 25  1  0
 25 26  2  0
 25 27  1  0
 27 28  2  0
 28 29  1  0
 29 30  2  0
 30 31  1  0
 31 32  2  0
 23 33  1  0
 33 34  2  0
 34 35  1  0
 35 36  1  0
 35 37  1  0
 35 38  1  0
 17 39  2  0
 39 40  1  0
 39 41  1  0
 13  7  1  0
 32 27  1  0
 34 19  1  0
 41  4  1  0
  1 42  1  0
  1 43  1  0
  1 44  1  0
  2 45  1  0
  3 46  1  0
  3 47  1  0
  3 48  1  0
  5 49  1  0
  5 50  1  0
  6 51  1  0
  6 52  1  0
  8 53  1  0
  9 54  1  0
 11 55  1  0
 12 56  1  0
 13 57  1  0
 14 58  1  0
 14 59  1  0
 20 60  1  0
 22 61  1  0
 22 62  1  0
 22 63  1  0
 24 64  1  0
 28 65  1  0
 29 66  1  0
 30 67  1  0
 32 68  1  0
 33 69  1  0
 36 70  1  0
 36 71  1  0
 36 72  1  0
 37 73  1  0
 37 74  1  0
 37 75  1  0
 38 76  1  0
 38 77  1  0
 38 78  1  0
 40 79  1  0
M  END
$$$$
