
     RDKit          3D

 84 87  0  0  0  0  0  0  0  0999 V2000
   -6.7725    1.8406    0.4903 C   0  0  0  0  0  0  0  0  0  0  0  0
   -6.0022    1.6359    1.8091 C   0  0  0  0  0  0  0  0  0  0  0  0
   -5.6518    3.0075    2.4061 C   0  0  0  0  0  0  0  0  0  0  0  0
   -4.7274    0.7377    1.6613 C   0  0  0  0  0  0  0  0  0  0  0  0
   -4.1150    0.8747    0.3304 N   0  0  0  0  0  0  0  0  0  0  0  0
   -3.1042    1.8511    0.0351 C   0  0  0  0  0  0  0  0  0  0  0  0
   -2.6407    2.5865    0.9493 O   0  0  0  0  0  0  0  0  0  0  0  0
   -2.6378    2.0401   -1.3781 C   0  0  0  0  0  0  0  0  0  0  0  0
   -1.1316    2.3300   -1.4457 C   0  0  2  0  0  0  0  0  0  0  0  0
   -0.5534    1.7002   -2.5671 O   0  0  0  0  0  0  0  0  0  0  0  0
   -0.1042    1.2561   -1.3064 C   0  0  2  0  0  0  0  0  0  0  0  0
   -0.4964   -0.2125   -1.0363 C   0  0  2  0  0  0  0  0  0  0  0  0
   -0.4871   -0.5244    0.4790 C   0  0  0  0  0  0  0  0  0  0  0  0
    0.8362   -0.2634    1.1649 C   0  0  0  0  0  0  0  0  0  0  0  0
    1.1592    1.0280    1.6176 C   0  0  0  0  0  0  0  0  0  0  0  0
    2.3769    1.2669    2.2616 C   0  0  0  0  0  0  0  0  0  0  0  0
    3.2736    0.2175    2.4749 C   0  0  0  0  0  0  0  0  0  0  0  0
    2.9589   -1.0708    2.0363 C   0  0  0  0  0  0  0  0  0  0  0  0
    1.7457   -1.3130    1.3854 C   0  0  0  0  0  0  0  0  0  0  0  0
    0.4233   -1.0987   -1.7554 N   0  0  0  0  0  0  0  0  0  0  0  0
    0.3975   -1.2341   -3.1847 C   0  0  0  0  0  0  0  0  0  0  0  0
   -0.6529   -0.9658   -3.8282 O   0  0  0  0  0  0  0  0  0  0  0  0
    1.6229   -1.7096   -3.9280 C   0  0  0  0  0  0  0  0  0  0  0  0
    1.6161   -3.2429   -4.1064 C   0  0  0  0  0  0  0  0  0  0  0  0
    1.5740   -3.9981   -2.8048 C   0  0  0  0  0  0  0  0  0  0  0  0
    2.7746   -4.4856   -2.2052 N   0  0  0  0  0  0  0  0  0  0  0  0
    0.4690   -4.1959   -2.2323 O   0  0  0  0  0  0  0  0  0  0  0  0
    2.8438   -1.2464   -3.2552 N   0  0  0  0  0  0  0  0  0  0  0  0
    3.0870    0.1490   -3.0138 C   0  0  0  0  0  0  0  0  0  0  0  0
    2.4923    1.0162   -3.7111 O   0  0  0  0  0  0  0  0  0  0  0  0
    3.9917    0.5724   -1.9252 C   0  0  0  0  0  0  0  0  0  0  0  0
    4.1288    1.9289   -1.5846 C   0  0  0  0  0  0  0  0  0  0  0  0
    4.9638    2.2964   -0.5276 C   0  0  0  0  0  0  0  0  0  0  0  0
    5.6605    1.3139    0.1843 C   0  0  0  0  0  0  0  0  0  0  0  0
    6.5016    1.6474    1.2563 C   0  0  0  0  0  0  0  0  0  0  0  0
    7.1749    0.6396    1.9546 C   0  0  0  0  0  0  0  0  0  0  0  0
    7.0132   -0.7004    1.5870 C   0  0  0  0  0  0  0  0  0  0  0  0
    6.1783   -1.0406    0.5181 C   0  0  0  0  0  0  0  0  0  0  0  0
    5.4995   -0.0393   -0.1851 C   0  0  0  0  0  0  0  0  0  0  0  0
    4.6752   -0.3673   -1.2150 N   0  0  0  0  0  0  0  0  0  0  0  0
   -4.9794   -0.7589    2.0266 C   0  0  0  0  0  0  0  0  0  0  0  0
   -6.0802   -1.4424    1.1986 C   0  0  0  0  0  0  0  0  0  0  0  0
   -3.6803   -1.5741    1.9440 C   0  0  0  0  0  0  0  0  0  0  0  0
   -7.0042    0.8754   -0.0000 H   0  0  0  0  0  0  0  0  0  0  0  0
   -6.1839    2.4613   -0.2190 H   0  0  0  0  0  0  0  0  0  0  0  0
   -7.7342    2.3593    0.6908 H   0  0  0  0  0  0  0  0  0  0  0  0
   -6.6972    1.1537    2.5316 H   0  0  0  0  0  0  0  0  0  0  0  0
   -4.9801    3.5738    1.7276 H   0  0  0  0  0  0  0  0  0  0  0  0
   -5.1532    2.8856    3.3913 H   0  0  0  0  0  0  0  0  0  0  0  0
   -6.5760    3.6034    2.5660 H   0  0  0  0  0  0  0  0  0  0  0  0
   -3.9861    1.0780    2.4196 H   0  0  0  0  0  0  0  0  0  0  0  0
   -4.5127    0.3303   -0.4666 H   0  0  0  0  0  0  0  0  0  0  0  0
   -3.1754    2.9142   -1.8016 H   0  0  0  0  0  0  0  0  0  0  0  0
   -2.9189    1.1684   -2.0057 H   0  0  0  0  0  0  0  0  0  0  0  0
   -0.7786    3.3777   -1.3434 H   0  0  0  0  0  0  0  0  0  0  0  0
    0.9453    1.5753   -1.1351 H   0  0  0  0  0  0  0  0  0  0  0  0
   -1.5230   -0.4299   -1.3943 H   0  0  0  0  0  0  0  0  0  0  0  0
   -0.7785   -1.5877    0.6243 H   0  0  0  0  0  0  0  0  0  0  0  0
   -1.2710    0.0778    0.9814 H   0  0  0  0  0  0  0  0  0  0  0  0
    0.4675    1.8487    1.4731 H   0  0  0  0  0  0  0  0  0  0  0  0
    2.6229    2.2647    2.6009 H   0  0  0  0  0  0  0  0  0  0  0  0
    4.2131    0.4027    2.9789 H   0  0  0  0  0  0  0  0  0  0  0  0
    3.6552   -1.8826    2.2016 H   0  0  0  0  0  0  0  0  0  0  0  0
    1.5137   -2.3195    1.0601 H   0  0  0  0  0  0  0  0  0  0  0  0
    1.1915   -1.5770   -1.2368 H   0  0  0  0  0  0  0  0  0  0  0  0
    1.6054   -1.2631   -4.9471 H   0  0  0  0  0  0  0  0  0  0  0  0
    0.7340   -3.5337   -4.7180 H   0  0  0  0  0  0  0  0  0  0  0  0
    2.5176   -3.5463   -4.6813 H   0  0  0  0  0  0  0  0  0  0  0  0
    2.7395   -4.9828   -1.2877 H   0  0  0  0  0  0  0  0  0  0  0  0
    3.6973   -4.3663   -2.6787 H   0  0  0  0  0  0  0  0  0  0  0  0
    3.5192   -1.9443   -2.8729 H   0  0  0  0  0  0  0  0  0  0  0  0
    3.5877    2.6971   -2.1226 H   0  0  0  0  0  0  0  0  0  0  0  0
    5.0610    3.3431   -0.2655 H   0  0  0  0  0  0  0  0  0  0  0  0
    6.6337    2.6804    1.5548 H   0  0  0  0  0  0  0  0  0  0  0  0
    7.8213    0.8971    2.7835 H   0  0  0  0  0  0  0  0  0  0  0  0
    7.5345   -1.4763    2.1325 H   0  0  0  0  0  0  0  0  0  0  0  0
    6.0549   -2.0809    0.2432 H   0  0  0  0  0  0  0  0  0  0  0  0
   -5.3080   -0.7905    3.0898 H   0  0  0  0  0  0  0  0  0  0  0  0
   -6.1716   -2.5087    1.4969 H   0  0  0  0  0  0  0  0  0  0  0  0
   -5.8563   -1.4082    0.1131 H   0  0  0  0  0  0  0  0  0  0  0  0
   -7.0654   -0.9718    1.3924 H   0  0  0  0  0  0  0  0  0  0  0  0
   -3.8463   -2.6013    2.3334 H   0  0  0  0  0  0  0  0  0  0  0  0
   -2.8868   -1.1011    2.5607 H   0  0  0  0  0  0  0  0  0  0  0  0
   -3.3290   -1.6484    0.8930 H   0  0  0  0  0  0  0  0  0  0  0  0
  1  2  1  0
  2  3  1  0
  2  4  1  0
  4  5  1  0
  5  6  1  0
  6  7  2  0
  6  8  1  0
  8  9  1  0
  9 10  1  0
 10 11  1  0
 11 12  1  0
 12 13  1  0
 13 14  1  0
 14 15  2  0
 15 16  1  0
 16 17  2  0
 17 18  1  0
 18 19  2  0
 12 20  1  0
 20 21  1  0
 21 22  2  0
 21 23  1  0
 23 24  1  0
 24 25  1  0
 25 26  1  0
 25 27  2  0
 23 28  1  0
 28 29  1  0
 29 30  2  0
 29 31  1  0
 31 32  2  0
 32 33  1  0
 33 34  2  0
 34 35  1  0
 35 36  2  0
 36 37  1  0
 37 38  2  0
 38 39  1  0
 39 40  2  0
  4 41  1  0
 41 42  1  0
 41 43  1  0
 11  9  1  0
 19 14  1  0
 39 34  1  0
 40 31  1  0
  1 44  1  0
  1 45  1  0
  1 46  1  0
  2 47  1  0
  3 48  1  0
  3 49  1  0
  3 50  1  0
  4 51  1  0
  5 52  1  0
  8 53  1  0
  8 54  1  0
  9 55  1  6
 11 56  1  6
 12 57  1  6
 13 58  1  0
 13 59  1  0
 15 60  1  0
 16 61  1  0
 17 62  1  0
 18 63  1  0
 19 64  1  0
 20 65  1  0
 23 66  1  0
 24 67  1  0
 24 68  1  0
 26 69  1  0
 26 70  1  0
 28 71  1  0
 32 72  1  0
 33 73  1  0
 35 74  1  0
 36 75  1  0
 37 76  1  0
 38 77  1  0
 41 78  1  0
 42 79  1  0
 42 80  1  0
 42 81  1  0
 43 82  1  0
 43 83  1  0
 43 84  1  0
M  END
$$$$
