
     RDKit          3D

 63 66  0  0  0  0  0  0  0  0999 V2000
    0.5469    2.0046   -1.6022 C   0  0  0  0  0  0  0  0  0  0  0  0
    1.1626    1.0055   -0.6232 C   0  0  0  0  0  0  0  0  0  0  0  0
    0.5279   -0.4031   -0.7392 C   0  0  0  0  0  0  0  0  0  0  0  0
    1.3249   -1.5038   -0.0441 C   0  0  0  0  0  0  0  0  0  0  0  0
    1.1425   -2.8344   -0.4596 C   0  0  0  0  0  0  0  0  0  0  0  0
    1.8631   -3.8706    0.1361 C   0  0  0  0  0  0  0  0  0  0  0  0
    2.7820   -3.5947    1.1492 C   0  0  0  0  0  0  0  0  0  0  0  0
    2.9815   -2.2788    1.5889 C   0  0  0  0  0  0  0  0  0  0  0  0
    3.9566   -2.0209    2.6157 N   0  0  0  0  0  0  0  0  0  0  0  0
    4.5610   -0.4381    2.9989 S   0  0  0  0  0  0  0  0  0  0  0  0
    5.8160   -0.5681    3.8148 O   0  0  0  0  0  0  0  0  0  0  0  0
    3.5261    0.2966    3.8045 O   0  0  0  0  0  0  0  0  0  0  0  0
    4.9376    0.4428    1.5194 C   0  0  0  0  0  0  0  0  0  0  0  0
    4.5235    1.7729    1.3571 C   0  0  0  0  0  0  0  0  0  0  0  0
    4.7686    2.4437    0.1551 C   0  0  0  0  0  0  0  0  0  0  0  0
    5.4312    1.7898   -0.8913 C   0  0  0  0  0  0  0  0  0  0  0  0
    5.6721    2.4764   -2.1331 C   0  0  0  0  0  0  0  0  0  0  0  0
    5.8655    3.0284   -3.1316 N   0  0  0  0  0  0  0  0  0  0  0  0
    5.8538    0.4644   -0.7279 C   0  0  0  0  0  0  0  0  0  0  0  0
    5.6086   -0.2060    0.4743 C   0  0  0  0  0  0  0  0  0  0  0  0
    2.2255   -1.2430    1.0092 C   0  0  0  0  0  0  0  0  0  0  0  0
   -0.9335   -0.4068   -0.2763 C   0  0  0  0  0  0  0  0  0  0  0  0
   -2.0177   -0.5132   -1.1868 C   0  0  0  0  0  0  0  0  0  0  0  0
   -1.8358   -0.4855   -2.5752 O   0  0  0  0  0  0  0  0  0  0  0  0
   -3.3353   -0.6294   -0.6975 C   0  0  0  0  0  0  0  0  0  0  0  0
   -4.4891   -0.7943   -1.6735 C   0  0  0  0  0  0  0  0  0  0  0  0
   -5.1081    0.5492   -2.0880 C   0  0  0  0  0  0  0  0  0  0  0  0
   -6.0824    1.1366   -1.0502 C   0  0  0  0  0  0  0  0  0  0  0  0
   -5.3755    1.7751    0.1629 C   0  0  0  0  0  0  0  0  0  0  0  0
   -5.4626    0.9308    1.4478 C   0  0  0  0  0  0  0  0  0  0  0  0
   -4.9132   -0.4979    1.3205 C   0  0  0  0  0  0  0  0  0  0  0  0
   -3.5426   -0.5190    0.6961 C   0  0  0  0  0  0  0  0  0  0  0  0
   -2.5076   -0.3587    1.5091 O   0  0  0  0  0  0  0  0  0  0  0  0
   -1.2503   -0.3056    1.0966 C   0  0  0  0  0  0  0  0  0  0  0  0
   -0.3459   -0.1533    1.9589 O   0  0  0  0  0  0  0  0  0  0  0  0
    0.6863    1.6580   -2.6478 H   0  0  0  0  0  0  0  0  0  0  0  0
    1.0481    2.9890   -1.4891 H   0  0  0  0  0  0  0  0  0  0  0  0
   -0.5364    2.1368   -1.3970 H   0  0  0  0  0  0  0  0  0  0  0  0
    1.0475    1.4090    0.4051 H   0  0  0  0  0  0  0  0  0  0  0  0
    2.2501    0.9382   -0.8469 H   0  0  0  0  0  0  0  0  0  0  0  0
    0.6018   -0.6736   -1.8083 H   0  0  0  0  0  0  0  0  0  0  0  0
    0.4413   -3.0683   -1.2514 H   0  0  0  0  0  0  0  0  0  0  0  0
    1.7159   -4.8903   -0.1959 H   0  0  0  0  0  0  0  0  0  0  0  0
    3.3455   -4.4084    1.5883 H   0  0  0  0  0  0  0  0  0  0  0  0
    4.4070   -2.8287    3.1014 H   0  0  0  0  0  0  0  0  0  0  0  0
    3.9988    2.2868    2.1519 H   0  0  0  0  0  0  0  0  0  0  0  0
    4.4347    3.4678    0.0388 H   0  0  0  0  0  0  0  0  0  0  0  0
    6.3660   -0.0518   -1.5309 H   0  0  0  0  0  0  0  0  0  0  0  0
    5.9274   -1.2348    0.5854 H   0  0  0  0  0  0  0  0  0  0  0  0
    2.3314   -0.2384    1.3823 H   0  0  0  0  0  0  0  0  0  0  0  0
   -0.9931   -0.1880   -3.0432 H   0  0  0  0  0  0  0  0  0  0  0  0
   -5.2656   -1.4840   -1.2897 H   0  0  0  0  0  0  0  0  0  0  0  0
   -4.1260   -1.3026   -2.5923 H   0  0  0  0  0  0  0  0  0  0  0  0
   -5.6842    0.3770   -3.0235 H   0  0  0  0  0  0  0  0  0  0  0  0
   -4.3117    1.2844   -2.3382 H   0  0  0  0  0  0  0  0  0  0  0  0
   -6.6631    1.9345   -1.5634 H   0  0  0  0  0  0  0  0  0  0  0  0
   -6.8249    0.3713   -0.7355 H   0  0  0  0  0  0  0  0  0  0  0  0
   -5.8634    2.7508    0.3795 H   0  0  0  0  0  0  0  0  0  0  0  0
   -4.3139    2.0131   -0.0659 H   0  0  0  0  0  0  0  0  0  0  0  0
   -6.5232    0.8761    1.7768 H   0  0  0  0  0  0  0  0  0  0  0  0
   -4.8992    1.4590    2.2480 H   0  0  0  0  0  0  0  0  0  0  0  0
   -5.6356   -1.1443    0.7888 H   0  0  0  0  0  0  0  0  0  0  0  0
   -4.8393   -0.9298    2.3422 H   0  0  0  0  0  0  0  0  0  0  0  0
  1  2  1  0
  2  3  1  0
  3  4  1  0
  4  5  2  0
  5  6  1  0
  6  7  2  0
  7  8  1  0
  8  9  1  0
  9 10  1  0
 10 11  2  0
 10 12  2  0
 10 13  1  0
 13 14  2  0
 14 15  1  0
 15 16  2  0
 16 17  1  0
 17 18  3  0
 16 19  1  0
 19 20  2  0
  8 21  2  0
  3 22  1  0
 22 23  2  0
 23 24  1  0
 23 25  1  0
 25 26  1  0
 26 27  1  0
 27 28  1  0
 28 29  1  0
 29 30  1  0
 30 31  1  0
 31 32  1  0
 32 33  1  0
 33 34  1  0
 34 35  2  0
 20 13  1  0
 21  4  1  0
 32 25  2  0
 34 22  1  0
  1 36  1  0
  1 37  1  0
  1 38  1  0
  2 39  1  0
  2 40  1  0
  3 41  1  0
  5 42  1  0
  6 43  1  0
  7 44  1  0
  9 45  1  0
 14 46  1  0
 15 47  1  0
 19 48  1  0
 20 49  1  0
 21 50  1  0
 24 51  1  0
 26 52  1  0
 26 53  1  0
 27 54  1  0
 27 55  1  0
 28 56  1  0
 28 57  1  0
 29 58  1  0
 29 59  1  0
 30 60  1  0
 30 61  1  0
 31 62  1  0
 31 63  1  0
M  END
$$$$
