
     RDKit          3D

 79 82  0  0  0  0  0  0  0  0999 V2000
   -0.0803   -0.0328   -0.5144 C   0  0  0  0  0  0  0  0  0  0  0  0
   -1.4653    0.3413   -1.0741 C   0  0  0  0  0  0  0  0  0  0  0  0
   -1.2650    1.2589   -2.2965 C   0  0  0  0  0  0  0  0  0  0  0  0
   -2.4456    0.9675   -0.0030 C   0  0  0  0  0  0  0  0  0  0  0  0
   -3.8279    1.3200   -0.6353 C   0  0  0  0  0  0  0  0  0  0  0  0
   -4.5739    0.1387   -1.2840 C   0  0  0  0  0  0  0  0  0  0  0  0
   -5.9493    0.5662   -1.7221 C   0  0  0  0  0  0  0  0  0  0  0  0
   -7.0400    0.4520   -0.8447 C   0  0  0  0  0  0  0  0  0  0  0  0
   -8.3105    0.8816   -1.2402 C   0  0  0  0  0  0  0  0  0  0  0  0
   -8.5008    1.4393   -2.5119 C   0  0  0  0  0  0  0  0  0  0  0  0
   -9.7618    1.8707   -2.9169 O   0  0  0  0  0  0  0  0  0  0  0  0
   -7.4141    1.5675   -3.3831 C   0  0  0  0  0  0  0  0  0  0  0  0
   -6.1427    1.1386   -2.9900 C   0  0  0  0  0  0  0  0  0  0  0  0
   -2.6867   -0.0048    1.1950 C   0  0  0  0  0  0  0  0  0  0  0  0
   -1.6652    0.1262    2.2874 C   0  0  0  0  0  0  0  0  0  0  0  0
   -1.6159   -0.7614    3.1775 O   0  0  0  0  0  0  0  0  0  0  0  0
   -0.8161    1.3239    2.3945 C   0  0  0  0  0  0  0  0  0  0  0  0
    0.4406    1.4381    3.6900 S   0  0  0  0  0  0  0  0  0  0  0  0
    1.7962    0.8806    2.6272 C   0  0  0  0  0  0  0  0  0  0  0  0
    2.3307    1.8727    1.7919 C   0  0  0  0  0  0  0  0  0  0  0  0
    3.2000    1.5620    0.7437 C   0  0  0  0  0  0  0  0  0  0  0  0
    3.6889    2.6610   -0.1609 C   0  0  0  0  0  0  0  0  0  0  0  0
    3.5416    0.2208    0.5117 C   0  0  0  0  0  0  0  0  0  0  0  0
    4.3267   -0.1482   -0.6375 N   0  0  0  0  0  0  0  0  0  0  0  0
    5.3475   -1.1595   -0.5984 C   0  0  0  0  0  0  0  0  0  0  0  0
    5.8559   -1.4895    0.5084 O   0  0  0  0  0  0  0  0  0  0  0  0
    5.8406   -1.7925   -1.8449 C   0  0  0  0  0  0  0  0  0  0  0  0
    5.0753   -1.7762   -3.0240 C   0  0  0  0  0  0  0  0  0  0  0  0
    5.5585   -2.3867   -4.1826 C   0  0  0  0  0  0  0  0  0  0  0  0
    6.8029   -3.0163   -4.1568 C   0  0  0  0  0  0  0  0  0  0  0  0
    7.5311   -3.0359   -3.0100 N   0  0  0  0  0  0  0  0  0  0  0  0
    7.0836   -2.4497   -1.8674 C   0  0  0  0  0  0  0  0  0  0  0  0
    3.0821   -0.7659    1.3949 C   0  0  0  0  0  0  0  0  0  0  0  0
    2.2833   -0.4640    2.5252 C   0  0  0  0  0  0  0  0  0  0  0  0
    2.0588   -1.6153    3.5501 C   0  0  0  0  0  0  0  0  0  0  0  0
    1.1968   -2.7196    2.9019 C   0  0  0  0  0  0  0  0  0  0  0  0
    1.3948   -1.1911    4.8801 C   0  0  0  0  0  0  0  0  0  0  0  0
    3.4322   -2.2243    3.9453 C   0  0  0  0  0  0  0  0  0  0  0  0
   -1.0267    2.3427    1.5538 C   0  0  0  0  0  0  0  0  0  0  0  0
   -0.3793    3.5586    1.7450 O   0  0  0  0  0  0  0  0  0  0  0  0
   -1.9086    2.2117    0.4732 O   0  0  0  0  0  0  0  0  0  0  0  0
    0.5349   -0.5133   -1.3050 H   0  0  0  0  0  0  0  0  0  0  0  0
    0.4624    0.8682   -0.1673 H   0  0  0  0  0  0  0  0  0  0  0  0
   -0.1607   -0.7695    0.3090 H   0  0  0  0  0  0  0  0  0  0  0  0
   -1.9035   -0.6104   -1.4434 H   0  0  0  0  0  0  0  0  0  0  0  0
   -2.2004    1.3527   -2.8841 H   0  0  0  0  0  0  0  0  0  0  0  0
   -0.9259    2.2682   -1.9801 H   0  0  0  0  0  0  0  0  0  0  0  0
   -0.5037    0.8326   -2.9845 H   0  0  0  0  0  0  0  0  0  0  0  0
   -4.4763    1.7572    0.1573 H   0  0  0  0  0  0  0  0  0  0  0  0
   -3.7066    2.1304   -1.3854 H   0  0  0  0  0  0  0  0  0  0  0  0
   -4.0162   -0.2326   -2.1688 H   0  0  0  0  0  0  0  0  0  0  0  0
   -4.6614   -0.7064   -0.5689 H   0  0  0  0  0  0  0  0  0  0  0  0
   -6.9057    0.0326    0.1448 H   0  0  0  0  0  0  0  0  0  0  0  0
   -9.1446    0.7842   -0.5571 H   0  0  0  0  0  0  0  0  0  0  0  0
  -10.5687    1.7924   -2.3088 H   0  0  0  0  0  0  0  0  0  0  0  0
   -7.5544    2.0033   -4.3642 H   0  0  0  0  0  0  0  0  0  0  0  0
   -5.3090    1.2541   -3.6718 H   0  0  0  0  0  0  0  0  0  0  0  0
   -3.6725    0.1960    1.6684 H   0  0  0  0  0  0  0  0  0  0  0  0
   -2.7067   -1.0579    0.8390 H   0  0  0  0  0  0  0  0  0  0  0  0
    2.0306    2.9020    1.9343 H   0  0  0  0  0  0  0  0  0  0  0  0
    3.1167    2.6403   -1.1121 H   0  0  0  0  0  0  0  0  0  0  0  0
    4.7703    2.5296   -0.3765 H   0  0  0  0  0  0  0  0  0  0  0  0
    3.5602    3.6596    0.3084 H   0  0  0  0  0  0  0  0  0  0  0  0
    4.2054    0.3977   -1.5193 H   0  0  0  0  0  0  0  0  0  0  0  0
    4.0977   -1.3134   -3.0505 H   0  0  0  0  0  0  0  0  0  0  0  0
    4.9706   -2.3770   -5.0914 H   0  0  0  0  0  0  0  0  0  0  0  0
    7.1885   -3.4939   -5.0476 H   0  0  0  0  0  0  0  0  0  0  0  0
    7.7034   -2.4905   -0.9811 H   0  0  0  0  0  0  0  0  0  0  0  0
    3.3536   -1.7896    1.1842 H   0  0  0  0  0  0  0  0  0  0  0  0
    0.9520   -3.5147    3.6392 H   0  0  0  0  0  0  0  0  0  0  0  0
    0.2502   -2.2982    2.5110 H   0  0  0  0  0  0  0  0  0  0  0  0
    1.7252   -3.2020    2.0531 H   0  0  0  0  0  0  0  0  0  0  0  0
    0.3170   -0.9831    4.7534 H   0  0  0  0  0  0  0  0  0  0  0  0
    1.4404   -2.0124    5.6282 H   0  0  0  0  0  0  0  0  0  0  0  0
    1.9169   -0.3153    5.3213 H   0  0  0  0  0  0  0  0  0  0  0  0
    4.1036   -1.4332    4.3442 H   0  0  0  0  0  0  0  0  0  0  0  0
    3.3157   -3.0076    4.7257 H   0  0  0  0  0  0  0  0  0  0  0  0
    3.9425   -2.7169    3.0932 H   0  0  0  0  0  0  0  0  0  0  0  0
   -0.5338    4.3303    1.1080 H   0  0  0  0  0  0  0  0  0  0  0  0
  1  2  1  0
  2  3  1  0
  2  4  1  0
  4  5  1  0
  5  6  1  0
  6  7  1  0
  7  8  2  0
  8  9  1  0
  9 10  2  0
 10 11  1  0
 10 12  1  0
 12 13  2  0
  4 14  1  0
 14 15  1  0
 15 16  2  0
 15 17  1  0
 17 18  1  0
 18 19  1  0
 19 20  2  0
 20 21  1  0
 21 22  1  0
 21 23  2  0
 23 24  1  0
 24 25  1  0
 25 26  2  0
 25 27  1  0
 27 28  2  0
 28 29  1  0
 29 30  2  0
 30 31  1  0
 31 32  2  0
 23 33  1  0
 33 34  2  0
 34 35  1  0
 35 36  1  0
 35 37  1  0
 35 38  1  0
 17 39  2  0
 39 40  1  0
 39 41  1  0
 13  7  1  0
 32 27  1  0
 34 19  1  0
 41  4  1  0
  1 42  1  0
  1 43  1  0
  1 44  1  0
  2 45  1  0
  3 46  1  0
  3 47  1  0
  3 48  1  0
  5 49  1  0
  5 50  1  0
  6 51  1  0
  6 52  1  0
  8 53  1  0
  9 54  1  0
 11 55  1  0
 12 56  1  0
 13 57  1  0
 14 58  1  0
 14 59  1  0
 20 60  1  0
 22 61  1  0
 22 62  1  0
 22 63  1  0
 24 64  1  0
 28 65  1  0
 29 66  1  0
 30 67  1  0
 32 68  1  0
 33 69  1  0
 36 70  1  0
 36 71  1  0
 36 72  1  0
 37 73  1  0
 37 74  1  0
 37 75  1  0
 38 76  1  0
 38 77  1  0
 38 78  1  0
 40 79  1  0
M  END
$$$$
