
     RDKit          3D

 84 87  0  0  0  0  0  0  0  0999 V2000
   -6.0981    0.3043   -2.1797 C   0  0  0  0  0  0  0  0  0  0  0  0
   -6.5022    1.2116   -1.0113 C   0  0  0  0  0  0  0  0  0  0  0  0
   -8.0245    1.4337   -0.9992 C   0  0  0  0  0  0  0  0  0  0  0  0
   -5.9194    0.8018    0.3858 C   0  0  0  0  0  0  0  0  0  0  0  0
   -4.5274    1.2649    0.4984 N   0  0  0  0  0  0  0  0  0  0  0  0
   -3.9533    1.7002    1.7421 C   0  0  0  0  0  0  0  0  0  0  0  0
   -4.6230    1.6284    2.8089 O   0  0  0  0  0  0  0  0  0  0  0  0
   -2.5860    2.3228    1.7654 C   0  0  0  0  0  0  0  0  0  0  0  0
   -1.7923    1.8749    3.0036 C   0  0  2  0  0  0  0  0  0  0  0  0
   -0.4234    2.1899    2.8688 O   0  0  0  0  0  0  0  0  0  0  0  0
   -0.7387    0.8176    2.9498 C   0  0  2  0  0  0  0  0  0  0  0  0
   -0.3792    0.0813    1.6467 C   0  0  2  0  0  0  0  0  0  0  0  0
   -1.4016   -1.0355    1.3830 C   0  0  0  0  0  0  0  0  0  0  0  0
   -1.1479   -1.7131    0.0609 C   0  0  0  0  0  0  0  0  0  0  0  0
   -0.5380   -2.9777    0.0149 C   0  0  0  0  0  0  0  0  0  0  0  0
   -0.2640   -3.5830   -1.2151 C   0  0  0  0  0  0  0  0  0  0  0  0
   -0.5972   -2.9321   -2.4060 C   0  0  0  0  0  0  0  0  0  0  0  0
   -1.2028   -1.6732   -2.3688 C   0  0  0  0  0  0  0  0  0  0  0  0
   -1.4741   -1.0625   -1.1411 C   0  0  0  0  0  0  0  0  0  0  0  0
    0.9607   -0.4992    1.7848 N   0  0  0  0  0  0  0  0  0  0  0  0
    1.9284   -0.4893    0.7233 C   0  0  0  0  0  0  0  0  0  0  0  0
    1.6635    0.0697   -0.3765 O   0  0  0  0  0  0  0  0  0  0  0  0
    3.2439   -1.1995    0.8964 C   0  0  0  0  0  0  0  0  0  0  0  0
    3.1521   -2.6104    0.2898 C   0  0  0  0  0  0  0  0  0  0  0  0
    4.4122   -3.3894    0.5286 C   0  0  0  0  0  0  0  0  0  0  0  0
    4.6637   -3.9815    1.8027 N   0  0  0  0  0  0  0  0  0  0  0  0
    5.2670   -3.4981   -0.3906 O   0  0  0  0  0  0  0  0  0  0  0  0
    4.3169   -0.4224    0.2647 N   0  0  0  0  0  0  0  0  0  0  0  0
    4.8411    0.7743    0.8638 C   0  0  0  0  0  0  0  0  0  0  0  0
    4.3856    1.1697    1.9721 O   0  0  0  0  0  0  0  0  0  0  0  0
    5.9089    1.5464    0.1912 C   0  0  0  0  0  0  0  0  0  0  0  0
    6.4200    2.7246    0.7627 C   0  0  0  0  0  0  0  0  0  0  0  0
    7.4280    3.4332    0.1054 C   0  0  0  0  0  0  0  0  0  0  0  0
    7.9239    2.9676   -1.1175 C   0  0  0  0  0  0  0  0  0  0  0  0
    8.9360    3.6547   -1.8044 C   0  0  0  0  0  0  0  0  0  0  0  0
    9.4095    3.1621   -3.0250 C   0  0  0  0  0  0  0  0  0  0  0  0
    8.8772    1.9858   -3.5636 C   0  0  0  0  0  0  0  0  0  0  0  0
    7.8681    1.2952   -2.8848 C   0  0  0  0  0  0  0  0  0  0  0  0
    7.3882    1.7806   -1.6630 C   0  0  0  0  0  0  0  0  0  0  0  0
    6.4072    1.1121   -1.0001 N   0  0  0  0  0  0  0  0  0  0  0  0
   -6.0199   -0.6923    0.8441 C   0  0  0  0  0  0  0  0  0  0  0  0
   -5.1009   -1.6734    0.0931 C   0  0  0  0  0  0  0  0  0  0  0  0
   -7.4555   -1.2272    0.8953 C   0  0  0  0  0  0  0  0  0  0  0  0
   -6.3127    0.8180   -3.1412 H   0  0  0  0  0  0  0  0  0  0  0  0
   -6.6812   -0.6385   -2.1712 H   0  0  0  0  0  0  0  0  0  0  0  0
   -5.0113    0.0822   -2.1537 H   0  0  0  0  0  0  0  0  0  0  0  0
   -6.0733    2.2139   -1.2405 H   0  0  0  0  0  0  0  0  0  0  0  0
   -8.3204    2.0863   -0.1508 H   0  0  0  0  0  0  0  0  0  0  0  0
   -8.3353    1.9414   -1.9375 H   0  0  0  0  0  0  0  0  0  0  0  0
   -8.5838    0.4817   -0.9353 H   0  0  0  0  0  0  0  0  0  0  0  0
   -6.5081    1.3858    1.1288 H   0  0  0  0  0  0  0  0  0  0  0  0
   -3.9405    1.3226   -0.3642 H   0  0  0  0  0  0  0  0  0  0  0  0
   -2.0586    2.1202    0.8149 H   0  0  0  0  0  0  0  0  0  0  0  0
   -2.7151    3.4240    1.8224 H   0  0  0  0  0  0  0  0  0  0  0  0
   -2.1631    2.1689    4.0083 H   0  0  0  0  0  0  0  0  0  0  0  0
   -0.4306    0.3831    3.9246 H   0  0  0  0  0  0  0  0  0  0  0  0
   -0.3794    0.7911    0.7949 H   0  0  0  0  0  0  0  0  0  0  0  0
   -1.3699   -1.7764    2.2125 H   0  0  0  0  0  0  0  0  0  0  0  0
   -2.4253   -0.6107    1.3763 H   0  0  0  0  0  0  0  0  0  0  0  0
   -0.2665   -3.4900    0.9294 H   0  0  0  0  0  0  0  0  0  0  0  0
    0.2105   -4.5553   -1.2449 H   0  0  0  0  0  0  0  0  0  0  0  0
   -0.3837   -3.4019   -3.3573 H   0  0  0  0  0  0  0  0  0  0  0  0
   -1.4575   -1.1681   -3.2915 H   0  0  0  0  0  0  0  0  0  0  0  0
   -1.9328   -0.0819   -1.1258 H   0  0  0  0  0  0  0  0  0  0  0  0
    1.1702   -1.0639    2.6395 H   0  0  0  0  0  0  0  0  0  0  0  0
    3.4639   -1.3028    1.9826 H   0  0  0  0  0  0  0  0  0  0  0  0
    2.3072   -3.1611    0.7563 H   0  0  0  0  0  0  0  0  0  0  0  0
    2.9493   -2.5462   -0.8025 H   0  0  0  0  0  0  0  0  0  0  0  0
    5.5466   -4.5125    1.9722 H   0  0  0  0  0  0  0  0  0  0  0  0
    3.9710   -3.8886    2.5785 H   0  0  0  0  0  0  0  0  0  0  0  0
    4.6781   -0.7237   -0.6687 H   0  0  0  0  0  0  0  0  0  0  0  0
    6.0445    3.0953    1.7083 H   0  0  0  0  0  0  0  0  0  0  0  0
    7.8177    4.3408    0.5509 H   0  0  0  0  0  0  0  0  0  0  0  0
    9.3579    4.5669   -1.3997 H   0  0  0  0  0  0  0  0  0  0  0  0
   10.1903    3.6926   -3.5545 H   0  0  0  0  0  0  0  0  0  0  0  0
    9.2474    1.6092   -4.5083 H   0  0  0  0  0  0  0  0  0  0  0  0
    7.4617    0.3853   -3.3091 H   0  0  0  0  0  0  0  0  0  0  0  0
   -5.6639   -0.6999    1.8989 H   0  0  0  0  0  0  0  0  0  0  0  0
   -4.1317   -1.2061   -0.1605 H   0  0  0  0  0  0  0  0  0  0  0  0
   -5.5657   -2.0536   -0.8372 H   0  0  0  0  0  0  0  0  0  0  0  0
   -4.8938   -2.5549    0.7369 H   0  0  0  0  0  0  0  0  0  0  0  0
   -7.8279   -1.4711   -0.1202 H   0  0  0  0  0  0  0  0  0  0  0  0
   -8.1315   -0.4888    1.3762 H   0  0  0  0  0  0  0  0  0  0  0  0
   -7.4853   -2.1610    1.4966 H   0  0  0  0  0  0  0  0  0  0  0  0
  1  2  1  0
  2  3  1  0
  2  4  1  0
  4  5  1  0
  5  6  1  0
  6  7  2  0
  6  8  1  0
  8  9  1  0
  9 10  1  0
 10 11  1  0
 11 12  1  0
 12 13  1  0
 13 14  1  0
 14 15  2  0
 15 16  1  0
 16 17  2  0
 17 18  1  0
 18 19  2  0
 12 20  1  0
 20 21  1  0
 21 22  2  0
 21 23  1  0
 23 24  1  0
 24 25  1  0
 25 26  1  0
 25 27  2  0
 23 28  1  0
 28 29  1  0
 29 30  2  0
 29 31  1  0
 31 32  2  0
 32 33  1  0
 33 34  2  0
 34 35  1  0
 35 36  2  0
 36 37  1  0
 37 38  2  0
 38 39  1  0
 39 40  2  0
  4 41  1  0
 41 42  1  0
 41 43  1  0
 11  9  1  0
 19 14  1  0
 39 34  1  0
 40 31  1  0
  1 44  1  0
  1 45  1  0
  1 46  1  0
  2 47  1  0
  3 48  1  0
  3 49  1  0
  3 50  1  0
  4 51  1  0
  5 52  1  0
  8 53  1  0
  8 54  1  0
  9 55  1  1
 11 56  1  1
 12 57  1  6
 13 58  1  0
 13 59  1  0
 15 60  1  0
 16 61  1  0
 17 62  1  0
 18 63  1  0
 19 64  1  0
 20 65  1  0
 23 66  1  0
 24 67  1  0
 24 68  1  0
 26 69  1  0
 26 70  1  0
 28 71  1  0
 32 72  1  0
 33 73  1  0
 35 74  1  0
 36 75  1  0
 37 76  1  0
 38 77  1  0
 41 78  1  0
 42 79  1  0
 42 80  1  0
 42 81  1  0
 43 82  1  0
 43 83  1  0
 43 84  1  0
M  END
$$$$
