
     RDKit          3D

 71 74  0  0  0  0  0  0  0  0999 V2000
    2.7983   -3.3867   -0.9396 C   0  0  0  0  0  0  0  0  0  0  0  0
    2.0760   -2.1777   -1.5681 C   0  0  0  0  0  0  0  0  0  0  0  0
    2.9039   -1.6576   -2.7546 C   0  0  0  0  0  0  0  0  0  0  0  0
    1.6756   -1.0783   -0.5043 C   0  0  0  0  0  0  0  0  0  0  0  0
    2.9087   -0.2797    0.0371 C   0  0  0  0  0  0  0  0  0  0  0  0
    3.2953    0.9980   -0.7365 C   0  0  0  0  0  0  0  0  0  0  0  0
    4.6065    1.5247   -0.2477 C   0  0  0  0  0  0  0  0  0  0  0  0
    5.7993    1.1332   -0.7600 N   0  0  0  0  0  0  0  0  0  0  0  0
    6.8278    1.7142   -0.0916 C   0  0  0  0  0  0  0  0  0  0  0  0
    8.1766    1.5115   -0.3889 C   0  0  0  0  0  0  0  0  0  0  0  0
    9.1454    2.1711    0.3874 C   0  0  0  0  0  0  0  0  0  0  0  0
    8.7577    3.0180    1.4452 C   0  0  0  0  0  0  0  0  0  0  0  0
    7.3979    3.2127    1.7362 C   0  0  0  0  0  0  0  0  0  0  0  0
    6.4584    2.5493    0.9513 C   0  0  0  0  0  0  0  0  0  0  0  0
    4.7847    2.5804    1.0662 S   0  0  0  0  0  0  0  0  0  0  0  0
    0.5913   -0.1168   -1.0677 C   0  0  0  0  0  0  0  0  0  0  0  0
   -0.7165   -0.8312   -1.2296 C   0  0  0  0  0  0  0  0  0  0  0  0
   -1.4668   -0.5441   -2.1971 O   0  0  0  0  0  0  0  0  0  0  0  0
   -1.1264   -1.8297   -0.2257 C   0  0  0  0  0  0  0  0  0  0  0  0
   -2.8236   -2.4598   -0.2034 S   0  0  0  0  0  0  0  0  0  0  0  0
   -3.5516   -1.0004    0.5831 C   0  0  0  0  0  0  0  0  0  0  0  0
   -3.0571   -0.6732    1.8543 C   0  0  0  0  0  0  0  0  0  0  0  0
   -3.4182    0.5096    2.5032 C   0  0  0  0  0  0  0  0  0  0  0  0
   -2.8121    0.8214    3.8480 C   0  0  0  0  0  0  0  0  0  0  0  0
   -4.3365    1.3773    1.8829 C   0  0  0  0  0  0  0  0  0  0  0  0
   -4.7279    2.7058    2.4925 C   0  0  0  0  0  0  0  0  0  0  0  0
   -3.9522    3.7348    1.9423 O   0  0  0  0  0  0  0  0  0  0  0  0
   -4.8860    1.0261    0.6409 C   0  0  0  0  0  0  0  0  0  0  0  0
   -4.5688   -0.1910   -0.0182 C   0  0  0  0  0  0  0  0  0  0  0  0
   -5.3945   -0.6420   -1.2673 C   0  0  0  0  0  0  0  0  0  0  0  0
   -6.0676   -2.0085   -0.9946 C   0  0  0  0  0  0  0  0  0  0  0  0
   -6.5484    0.3390   -1.6167 C   0  0  0  0  0  0  0  0  0  0  0  0
   -4.5080   -0.7306   -2.5270 C   0  0  0  0  0  0  0  0  0  0  0  0
   -0.2110   -2.2494    0.6707 C   0  0  0  0  0  0  0  0  0  0  0  0
   -0.5197   -3.1773    1.6677 O   0  0  0  0  0  0  0  0  0  0  0  0
    1.1016   -1.7517    0.6289 O   0  0  0  0  0  0  0  0  0  0  0  0
    3.7821   -3.1014   -0.5154 H   0  0  0  0  0  0  0  0  0  0  0  0
    2.1817   -3.8509   -0.1423 H   0  0  0  0  0  0  0  0  0  0  0  0
    2.9723   -4.1671   -1.7112 H   0  0  0  0  0  0  0  0  0  0  0  0
    1.1382   -2.5883   -2.0025 H   0  0  0  0  0  0  0  0  0  0  0  0
    3.0259   -2.4640   -3.5091 H   0  0  0  0  0  0  0  0  0  0  0  0
    3.9185   -1.3482   -2.4270 H   0  0  0  0  0  0  0  0  0  0  0  0
    2.3968   -0.8146   -3.2639 H   0  0  0  0  0  0  0  0  0  0  0  0
    2.6896    0.0357    1.0820 H   0  0  0  0  0  0  0  0  0  0  0  0
    3.7920   -0.9471    0.1058 H   0  0  0  0  0  0  0  0  0  0  0  0
    2.5253    1.7835   -0.5848 H   0  0  0  0  0  0  0  0  0  0  0  0
    3.3738    0.8136   -1.8239 H   0  0  0  0  0  0  0  0  0  0  0  0
    8.4731    0.8594   -1.2005 H   0  0  0  0  0  0  0  0  0  0  0  0
   10.1961    2.0268    0.1717 H   0  0  0  0  0  0  0  0  0  0  0  0
    9.5118    3.5202    2.0371 H   0  0  0  0  0  0  0  0  0  0  0  0
    7.0903    3.8592    2.5478 H   0  0  0  0  0  0  0  0  0  0  0  0
    0.4191    0.7124   -0.3478 H   0  0  0  0  0  0  0  0  0  0  0  0
    0.9000    0.3319   -2.0340 H   0  0  0  0  0  0  0  0  0  0  0  0
   -2.3460   -1.3346    2.3297 H   0  0  0  0  0  0  0  0  0  0  0  0
   -3.6016    0.8013    4.6281 H   0  0  0  0  0  0  0  0  0  0  0  0
   -2.3322    1.8217    3.8292 H   0  0  0  0  0  0  0  0  0  0  0  0
   -2.0324    0.0823    4.1305 H   0  0  0  0  0  0  0  0  0  0  0  0
   -5.7967    2.9162    2.2742 H   0  0  0  0  0  0  0  0  0  0  0  0
   -4.6436    2.7041    3.6009 H   0  0  0  0  0  0  0  0  0  0  0  0
   -3.0593    3.6791    2.3720 H   0  0  0  0  0  0  0  0  0  0  0  0
   -5.5846    1.7285    0.2152 H   0  0  0  0  0  0  0  0  0  0  0  0
   -6.7593   -2.2826   -1.8208 H   0  0  0  0  0  0  0  0  0  0  0  0
   -5.3417   -2.8367   -0.9151 H   0  0  0  0  0  0  0  0  0  0  0  0
   -6.6538   -1.9672   -0.0511 H   0  0  0  0  0  0  0  0  0  0  0  0
   -7.1483   -0.0362   -2.4747 H   0  0  0  0  0  0  0  0  0  0  0  0
   -7.2462    0.4562   -0.7590 H   0  0  0  0  0  0  0  0  0  0  0  0
   -6.1518    1.3334   -1.9164 H   0  0  0  0  0  0  0  0  0  0  0  0
   -3.8134   -1.5879   -2.4975 H   0  0  0  0  0  0  0  0  0  0  0  0
   -5.1279   -0.8787   -3.4381 H   0  0  0  0  0  0  0  0  0  0  0  0
   -3.9315    0.2101   -2.6561 H   0  0  0  0  0  0  0  0  0  0  0  0
   -1.4282   -3.6114    1.7678 H   0  0  0  0  0  0  0  0  0  0  0  0
  1  2  1  0
  2  3  1  0
  2  4  1  0
  4  5  1  0
  5  6  1  0
  6  7  1  0
  7  8  2  0
  8  9  1  0
  9 10  2  0
 10 11  1  0
 11 12  2  0
 12 13  1  0
 13 14  2  0
 14 15  1  0
  4 16  1  0
 16 17  1  0
 17 18  2  0
 17 19  1  0
 19 20  1  0
 20 21  1  0
 21 22  2  0
 22 23  1  0
 23 24  1  0
 23 25  2  0
 25 26  1  0
 26 27  1  0
 25 28  1  0
 28 29  2  0
 29 30  1  0
 30 31  1  0
 30 32  1  0
 30 33  1  0
 19 34  2  0
 34 35  1  0
 34 36  1  0
 14  9  1  0
 15  7  1  0
 29 21  1  0
 36  4  1  0
  1 37  1  0
  1 38  1  0
  1 39  1  0
  2 40  1  0
  3 41  1  0
  3 42  1  0
  3 43  1  0
  5 44  1  0
  5 45  1  0
  6 46  1  0
  6 47  1  0
 10 48  1  0
 11 49  1  0
 12 50  1  0
 13 51  1  0
 16 52  1  0
 16 53  1  0
 22 54  1  0
 24 55  1  0
 24 56  1  0
 24 57  1  0
 26 58  1  0
 26 59  1  0
 27 60  1  0
 28 61  1  0
 31 62  1  0
 31 63  1  0
 31 64  1  0
 32 65  1  0
 32 66  1  0
 32 67  1  0
 33 68  1  0
 33 69  1  0
 33 70  1  0
 35 71  1  0
M  END
$$$$
