
     RDKit          3D

 72 75  0  0  0  0  0  0  0  0999 V2000
   -5.3342   -2.6535   -2.7953 C   0  0  0  0  0  0  0  0  0  0  0  0
   -4.4910   -2.0889   -1.6558 C   0  0  0  0  0  0  0  0  0  0  0  0
   -3.9496   -0.6900   -2.0054 C   0  0  0  0  0  0  0  0  0  0  0  0
   -3.2134    0.0266   -0.8334 C   0  0  0  0  0  0  0  0  0  0  0  0
   -4.1302    1.0195   -0.0851 C   0  0  0  0  0  0  0  0  0  0  0  0
   -5.3388    0.3689    0.6035 C   0  0  0  0  0  0  0  0  0  0  0  0
   -6.0582    1.3738    1.4633 C   0  0  0  0  0  0  0  0  0  0  0  0
   -5.6974    1.5412    2.8109 C   0  0  0  0  0  0  0  0  0  0  0  0
   -6.3439    2.4983    3.5992 C   0  0  0  0  0  0  0  0  0  0  0  0
   -7.3462    3.3003    3.0465 C   0  0  0  0  0  0  0  0  0  0  0  0
   -7.7009    3.1494    1.7030 C   0  0  0  0  0  0  0  0  0  0  0  0
   -7.0570    2.1936    0.9111 C   0  0  0  0  0  0  0  0  0  0  0  0
   -2.1315    0.7866   -1.3838 O   0  0  0  0  0  0  0  0  0  0  0  0
   -0.8675    0.2377   -1.6464 C   0  0  0  0  0  0  0  0  0  0  0  0
   -0.0159    0.9356   -2.4944 O   0  0  0  0  0  0  0  0  0  0  0  0
   -0.4963   -0.9247   -1.0680 C   0  0  0  0  0  0  0  0  0  0  0  0
    0.8578   -1.6058   -1.2752 C   0  0  0  0  0  0  0  0  0  0  0  0
    1.4393   -1.4914   -2.7060 C   0  0  0  0  0  0  0  0  0  0  0  0
    2.5153   -2.5453   -2.9731 C   0  0  0  0  0  0  0  0  0  0  0  0
    1.8523   -1.1592   -0.2172 C   0  0  0  0  0  0  0  0  0  0  0  0
    2.3536   -2.0886    0.7100 C   0  0  0  0  0  0  0  0  0  0  0  0
    3.2677   -1.6910    1.6865 C   0  0  0  0  0  0  0  0  0  0  0  0
    3.6973   -0.3648    1.7501 C   0  0  0  0  0  0  0  0  0  0  0  0
    3.2170    0.5820    0.8278 C   0  0  0  0  0  0  0  0  0  0  0  0
    3.6466    1.9548    0.8573 N   0  0  0  0  0  0  0  0  0  0  0  0
    5.0447    2.5085    1.7236 S   0  0  0  0  0  0  0  0  0  0  0  0
    5.3412    3.9283    1.3314 O   0  0  0  0  0  0  0  0  0  0  0  0
    4.7608    2.4570    3.1990 O   0  0  0  0  0  0  0  0  0  0  0  0
    6.4366    1.5080    1.3202 C   0  0  0  0  0  0  0  0  0  0  0  0
    7.3685    1.1552    2.3063 C   0  0  0  0  0  0  0  0  0  0  0  0
    8.4637    0.3483    1.9817 C   0  0  0  0  0  0  0  0  0  0  0  0
    8.6346   -0.1088    0.6687 C   0  0  0  0  0  0  0  0  0  0  0  0
    9.7606   -0.9411    0.3350 C   0  0  0  0  0  0  0  0  0  0  0  0
   10.6658   -1.6103    0.0667 N   0  0  0  0  0  0  0  0  0  0  0  0
    7.7073    0.2470   -0.3190 C   0  0  0  0  0  0  0  0  0  0  0  0
    6.6133    1.0547    0.0057 C   0  0  0  0  0  0  0  0  0  0  0  0
    2.2899    0.1766   -0.1451 C   0  0  0  0  0  0  0  0  0  0  0  0
   -1.4308   -1.4930   -0.0706 C   0  0  0  0  0  0  0  0  0  0  0  0
   -1.0911   -2.4638    0.6564 O   0  0  0  0  0  0  0  0  0  0  0  0
   -2.6923   -0.9234    0.0992 O   0  0  0  0  0  0  0  0  0  0  0  0
   -4.7300   -2.7234   -3.7249 H   0  0  0  0  0  0  0  0  0  0  0  0
   -5.6907   -3.6701   -2.5260 H   0  0  0  0  0  0  0  0  0  0  0  0
   -6.2174   -2.0052   -2.9788 H   0  0  0  0  0  0  0  0  0  0  0  0
   -5.1110   -2.0583   -0.7378 H   0  0  0  0  0  0  0  0  0  0  0  0
   -3.6411   -2.7814   -1.4728 H   0  0  0  0  0  0  0  0  0  0  0  0
   -4.7772   -0.0483   -2.3807 H   0  0  0  0  0  0  0  0  0  0  0  0
   -3.2440   -0.8149   -2.8565 H   0  0  0  0  0  0  0  0  0  0  0  0
   -3.5157    1.5373    0.6850 H   0  0  0  0  0  0  0  0  0  0  0  0
   -4.4899    1.7971   -0.7951 H   0  0  0  0  0  0  0  0  0  0  0  0
   -5.0082   -0.4878    1.2302 H   0  0  0  0  0  0  0  0  0  0  0  0
   -6.0432   -0.0211   -0.1617 H   0  0  0  0  0  0  0  0  0  0  0  0
   -4.9157    0.9328    3.2488 H   0  0  0  0  0  0  0  0  0  0  0  0
   -6.0652    2.6207    4.6379 H   0  0  0  0  0  0  0  0  0  0  0  0
   -7.8446    4.0415    3.6577 H   0  0  0  0  0  0  0  0  0  0  0  0
   -8.4725    3.7757    1.2743 H   0  0  0  0  0  0  0  0  0  0  0  0
   -7.3345    2.0931   -0.1310 H   0  0  0  0  0  0  0  0  0  0  0  0
   -0.3071    1.8101   -2.9134 H   0  0  0  0  0  0  0  0  0  0  0  0
    0.6615   -2.6930   -1.1371 H   0  0  0  0  0  0  0  0  0  0  0  0
    0.6245   -1.6329   -3.4494 H   0  0  0  0  0  0  0  0  0  0  0  0
    1.8979   -0.4950   -2.8749 H   0  0  0  0  0  0  0  0  0  0  0  0
    3.3641   -2.4216   -2.2676 H   0  0  0  0  0  0  0  0  0  0  0  0
    2.0939   -3.5673   -2.8652 H   0  0  0  0  0  0  0  0  0  0  0  0
    2.8985   -2.4301   -4.0088 H   0  0  0  0  0  0  0  0  0  0  0  0
    2.0369   -3.1236    0.6802 H   0  0  0  0  0  0  0  0  0  0  0  0
    3.6439   -2.4141    2.3987 H   0  0  0  0  0  0  0  0  0  0  0  0
    4.3973   -0.0886    2.5251 H   0  0  0  0  0  0  0  0  0  0  0  0
    3.1645    2.6505    0.2450 H   0  0  0  0  0  0  0  0  0  0  0  0
    7.2481    1.5010    3.3248 H   0  0  0  0  0  0  0  0  0  0  0  0
    9.1754    0.0806    2.7534 H   0  0  0  0  0  0  0  0  0  0  0  0
    7.8298   -0.0997   -1.3381 H   0  0  0  0  0  0  0  0  0  0  0  0
    5.9024    1.3226   -0.7657 H   0  0  0  0  0  0  0  0  0  0  0  0
    1.9214    0.9054   -0.8523 H   0  0  0  0  0  0  0  0  0  0  0  0
  1  2  1  0
  2  3  1  0
  3  4  1  0
  4  5  1  0
  5  6  1  0
  6  7  1  0
  7  8  2  0
  8  9  1  0
  9 10  2  0
 10 11  1  0
 11 12  2  0
  4 13  1  0
 13 14  1  0
 14 15  1  0
 14 16  2  0
 16 17  1  0
 17 18  1  0
 18 19  1  0
 17 20  1  0
 20 21  2  0
 21 22  1  0
 22 23  2  0
 23 24  1  0
 24 25  1  0
 25 26  1  0
 26 27  2  0
 26 28  2  0
 26 29  1  0
 29 30  2  0
 30 31  1  0
 31 32  2  0
 32 33  1  0
 33 34  3  0
 32 35  1  0
 35 36  2  0
 24 37  2  0
 16 38  1  0
 38 39  2  0
 38 40  1  0
 12  7  1  0
 36 29  1  0
 37 20  1  0
 40  4  1  0
  1 41  1  0
  1 42  1  0
  1 43  1  0
  2 44  1  0
  2 45  1  0
  3 46  1  0
  3 47  1  0
  5 48  1  0
  5 49  1  0
  6 50  1  0
  6 51  1  0
  8 52  1  0
  9 53  1  0
 10 54  1  0
 11 55  1  0
 12 56  1  0
 15 57  1  0
 17 58  1  0
 18 59  1  0
 18 60  1  0
 19 61  1  0
 19 62  1  0
 19 63  1  0
 21 64  1  0
 22 65  1  0
 23 66  1  0
 25 67  1  0
 30 68  1  0
 31 69  1  0
 35 70  1  0
 36 71  1  0
 37 72  1  0
M  END
$$$$
