
     RDKit          3D

 74 77  0  0  0  0  0  0  0  0999 V2000
    0.6045    4.2495    2.3329 C   0  0  0  0  0  0  0  0  0  0  0  0
    1.6439    3.3554    1.9477 O   0  0  0  0  0  0  0  0  0  0  0  0
    1.6845    2.6671    0.7260 C   0  0  0  0  0  0  0  0  0  0  0  0
    0.6834    2.8077   -0.2528 C   0  0  0  0  0  0  0  0  0  0  0  0
    0.7631    2.0918   -1.4500 C   0  0  0  0  0  0  0  0  0  0  0  0
    1.8379    1.2225   -1.6872 C   0  0  0  0  0  0  0  0  0  0  0  0
    1.9158    0.2836   -3.1854 S   0  0  0  0  0  0  0  0  0  0  0  0
    3.3284    0.3082   -3.6973 O   0  0  0  0  0  0  0  0  0  0  0  0
    1.0473    0.9505   -4.2148 O   0  0  0  0  0  0  0  0  0  0  0  0
    1.3528   -1.3700   -2.9894 N   0  0  0  0  0  0  0  0  0  0  0  0
    0.7741   -1.7016   -1.6726 C   0  0  0  0  0  0  0  0  0  0  0  0
   -0.6610   -1.1497   -1.5501 C   0  0  1  0  0  0  0  0  0  0  0  0
   -1.5513   -2.0348   -2.1849 O   0  0  0  0  0  0  0  0  0  0  0  0
   -1.0635   -0.9272   -0.0699 C   0  0  2  0  0  0  0  0  0  0  0  0
   -1.2385   -2.2521    0.7020 C   0  0  0  0  0  0  0  0  0  0  0  0
   -1.4762   -1.9975    2.1682 C   0  0  0  0  0  0  0  0  0  0  0  0
   -2.7828   -1.9759    2.6850 C   0  0  0  0  0  0  0  0  0  0  0  0
   -3.0015   -1.6798    4.0339 C   0  0  0  0  0  0  0  0  0  0  0  0
   -1.9203   -1.3993    4.8739 C   0  0  0  0  0  0  0  0  0  0  0  0
   -0.6184   -1.4121    4.3658 C   0  0  0  0  0  0  0  0  0  0  0  0
   -0.3952   -1.7066    3.0174 C   0  0  0  0  0  0  0  0  0  0  0  0
   -2.3020   -0.1418   -0.0046 N   0  0  0  0  0  0  0  0  0  0  0  0
   -2.4858    0.9460    0.9101 C   0  0  0  0  0  0  0  0  0  0  0  0
   -1.5471    1.3060    1.6727 O   0  0  0  0  0  0  0  0  0  0  0  0
   -3.7243    1.5930    0.9613 O   0  0  0  0  0  0  0  0  0  0  0  0
   -3.9985    2.6845    1.8419 C   0  0  0  0  0  0  0  0  0  0  0  0
   -3.4026    3.9589    1.3164 C   0  0  0  0  0  0  0  0  0  0  0  0
   -4.5166    4.5376    0.4666 C   0  0  0  0  0  0  0  0  0  0  0  0
   -5.7476    3.9625    0.8437 O   0  0  0  0  0  0  0  0  0  0  0  0
   -5.4824    2.9913    1.8292 C   0  0  0  0  0  0  0  0  0  0  0  0
    2.2438   -2.3025   -3.4742 O   0  0  0  0  0  0  0  0  0  0  0  0
    3.3603   -2.4788   -2.6067 C   0  0  0  0  0  0  0  0  0  0  0  0
    4.6379   -2.5965   -3.4273 C   0  0  0  0  0  0  0  0  0  0  0  0
    5.5579   -3.4832   -2.6116 C   0  0  0  0  0  0  0  0  0  0  0  0
    4.6449   -4.4438   -1.8664 C   0  0  0  0  0  0  0  0  0  0  0  0
    3.2589   -3.8023   -1.8429 C   0  0  0  0  0  0  0  0  0  0  0  0
    2.8473    1.1009   -0.7227 C   0  0  0  0  0  0  0  0  0  0  0  0
    2.7653    1.8132    0.4774 C   0  0  0  0  0  0  0  0  0  0  0  0
   -0.3656    3.7123    2.3772 H   0  0  0  0  0  0  0  0  0  0  0  0
    0.5409    5.0943    1.6150 H   0  0  0  0  0  0  0  0  0  0  0  0
    0.8304    4.6556    3.3400 H   0  0  0  0  0  0  0  0  0  0  0  0
   -0.1607    3.4643   -0.0976 H   0  0  0  0  0  0  0  0  0  0  0  0
   -0.0219    2.2099   -2.1855 H   0  0  0  0  0  0  0  0  0  0  0  0
    1.4244   -1.3184   -0.8589 H   0  0  0  0  0  0  0  0  0  0  0  0
    0.7225   -2.8051   -1.5559 H   0  0  0  0  0  0  0  0  0  0  0  0
   -0.6987   -0.1597   -2.0571 H   0  0  0  0  0  0  0  0  0  0  0  0
   -2.3039   -1.4938   -2.5401 H   0  0  0  0  0  0  0  0  0  0  0  0
   -0.2405   -0.3498    0.4083 H   0  0  0  0  0  0  0  0  0  0  0  0
   -2.0841   -2.8331    0.2729 H   0  0  0  0  0  0  0  0  0  0  0  0
   -0.3274   -2.8790    0.5969 H   0  0  0  0  0  0  0  0  0  0  0  0
   -3.6308   -2.1757    2.0418 H   0  0  0  0  0  0  0  0  0  0  0  0
   -4.0098   -1.6623    4.4268 H   0  0  0  0  0  0  0  0  0  0  0  0
   -2.0916   -1.1679    5.9171 H   0  0  0  0  0  0  0  0  0  0  0  0
    0.2176   -1.1881    5.0157 H   0  0  0  0  0  0  0  0  0  0  0  0
    0.6170   -1.6988    2.6319 H   0  0  0  0  0  0  0  0  0  0  0  0
   -3.1365   -0.4675   -0.5419 H   0  0  0  0  0  0  0  0  0  0  0  0
   -3.6490    2.4511    2.8730 H   0  0  0  0  0  0  0  0  0  0  0  0
   -2.4799    3.7892    0.7217 H   0  0  0  0  0  0  0  0  0  0  0  0
   -3.1758    4.6449    2.1625 H   0  0  0  0  0  0  0  0  0  0  0  0
   -4.3296    4.3091   -0.6051 H   0  0  0  0  0  0  0  0  0  0  0  0
   -4.5654    5.6407    0.5891 H   0  0  0  0  0  0  0  0  0  0  0  0
   -5.7919    3.3933    2.8188 H   0  0  0  0  0  0  0  0  0  0  0  0
   -6.0776    2.0755    1.6248 H   0  0  0  0  0  0  0  0  0  0  0  0
    3.4994   -1.6498   -1.8793 H   0  0  0  0  0  0  0  0  0  0  0  0
    4.4247   -3.0878   -4.4032 H   0  0  0  0  0  0  0  0  0  0  0  0
    5.1037   -1.6052   -3.6118 H   0  0  0  0  0  0  0  0  0  0  0  0
    6.1215   -2.8605   -1.8817 H   0  0  0  0  0  0  0  0  0  0  0  0
    6.2775   -4.0259   -3.2623 H   0  0  0  0  0  0  0  0  0  0  0  0
    4.6023   -5.4164   -2.4048 H   0  0  0  0  0  0  0  0  0  0  0  0
    5.0212   -4.6213   -0.8353 H   0  0  0  0  0  0  0  0  0  0  0  0
    2.5248   -4.4823   -2.3296 H   0  0  0  0  0  0  0  0  0  0  0  0
    2.9347   -3.6210   -0.7947 H   0  0  0  0  0  0  0  0  0  0  0  0
    3.6953    0.4525   -0.8935 H   0  0  0  0  0  0  0  0  0  0  0  0
    3.5463    1.7014    1.2187 H   0  0  0  0  0  0  0  0  0  0  0  0
  1  2  1  0
  2  3  1  0
  3  4  2  0
  4  5  1  0
  5  6  2  0
  6  7  1  0
  7  8  2  0
  7  9  2  0
  7 10  1  0
 10 11  1  0
 11 12  1  0
 12 13  1  0
 12 14  1  0
 14 15  1  0
 15 16  1  0
 16 17  2  0
 17 18  1  0
 18 19  2  0
 19 20  1  0
 20 21  2  0
 14 22  1  0
 22 23  1  0
 23 24  2  0
 23 25  1  0
 25 26  1  0
 26 27  1  0
 27 28  1  0
 28 29  1  0
 29 30  1  0
 10 31  1  0
 31 32  1  0
 32 33  1  0
 33 34  1  0
 34 35  1  0
 35 36  1  0
  6 37  1  0
 37 38  2  0
 21 16  1  0
 30 26  1  0
 36 32  1  0
 38  3  1  0
  1 39  1  0
  1 40  1  0
  1 41  1  0
  4 42  1  0
  5 43  1  0
 11 44  1  0
 11 45  1  0
 12 46  1  6
 13 47  1  0
 14 48  1  1
 15 49  1  0
 15 50  1  0
 17 51  1  0
 18 52  1  0
 19 53  1  0
 20 54  1  0
 21 55  1  0
 22 56  1  0
 26 57  1  0
 27 58  1  0
 27 59  1  0
 28 60  1  0
 28 61  1  0
 30 62  1  0
 30 63  1  0
 32 64  1  0
 33 65  1  0
 33 66  1  0
 34 67  1  0
 34 68  1  0
 35 69  1  0
 35 70  1  0
 36 71  1  0
 36 72  1  0
 37 73  1  0
 38 74  1  0
M  END
$$$$
