
     RDKit          3D

 77 80  0  0  0  0  0  0  0  0999 V2000
    3.2083   -1.0053   -1.9202 C   0  0  0  0  0  0  0  0  0  0  0  0
    4.3951   -0.4393   -1.1761 C   0  0  0  0  0  0  0  0  0  0  0  0
    5.6201   -1.1543   -1.1711 C   0  0  0  0  0  0  0  0  0  0  0  0
    5.7430   -2.4262   -1.7369 O   0  0  0  0  0  0  0  0  0  0  0  0
    6.7561   -0.5922   -0.5823 C   0  0  0  0  0  0  0  0  0  0  0  0
    6.6942    0.6593    0.0236 C   0  0  0  0  0  0  0  0  0  0  0  0
    5.4879    1.3533    0.0712 C   0  0  0  0  0  0  0  0  0  0  0  0
    4.3245    0.8109   -0.4988 C   0  0  0  0  0  0  0  0  0  0  0  0
    3.0634    1.5682   -0.3305 C   0  0  0  0  0  0  0  0  0  0  0  0
    3.0574    2.8087   -0.5544 O   0  0  0  0  0  0  0  0  0  0  0  0
    1.8819    0.9143    0.1635 N   0  0  0  0  0  0  0  0  0  0  0  0
    0.6627    1.6087    0.6035 C   0  0  2  0  0  0  0  0  0  0  0  0
   -0.0009    2.4242   -0.5331 C   0  0  0  0  0  0  0  0  0  0  0  0
   -0.1062    1.6941   -1.8941 C   0  0  2  0  0  0  0  0  0  0  0  0
   -0.7976    2.5146   -2.8025 O   0  0  0  0  0  0  0  0  0  0  0  0
   -0.8145    0.3210   -1.7958 C   0  0  2  0  0  0  0  0  0  0  0  0
   -0.8653   -0.3783   -3.1676 C   0  0  0  0  0  0  0  0  0  0  0  0
   -1.4136   -1.7763   -3.0411 C   0  0  0  0  0  0  0  0  0  0  0  0
   -0.5819   -2.8249   -2.6139 C   0  0  0  0  0  0  0  0  0  0  0  0
   -1.1027   -4.1108   -2.4407 C   0  0  0  0  0  0  0  0  0  0  0  0
   -2.4567   -4.3569   -2.6851 C   0  0  0  0  0  0  0  0  0  0  0  0
   -3.2921   -3.3173   -3.1028 C   0  0  0  0  0  0  0  0  0  0  0  0
   -2.7748   -2.0306   -3.2793 C   0  0  0  0  0  0  0  0  0  0  0  0
   -2.1740    0.4823   -1.2660 N   0  0  0  0  0  0  0  0  0  0  0  0
   -2.6727   -0.2746   -0.1516 C   0  0  0  0  0  0  0  0  0  0  0  0
   -1.9242   -1.0970    0.4433 O   0  0  0  0  0  0  0  0  0  0  0  0
   -4.0724   -0.1074    0.2971 C   0  0  0  0  0  0  0  0  0  0  0  0
   -5.0925   -0.1063   -0.6684 C   0  0  0  0  0  0  0  0  0  0  0  0
   -6.4294   -0.0007   -0.2887 C   0  0  0  0  0  0  0  0  0  0  0  0
   -6.7681    0.1004    1.0587 C   0  0  0  0  0  0  0  0  0  0  0  0
   -5.7697    0.1128    2.0411 C   0  0  0  0  0  0  0  0  0  0  0  0
   -6.1292    0.2076    3.3859 O   0  0  0  0  0  0  0  0  0  0  0  0
   -4.4097    0.0311    1.6694 C   0  0  0  0  0  0  0  0  0  0  0  0
   -3.3375    0.0844    2.7314 C   0  0  0  0  0  0  0  0  0  0  0  0
    0.9429    2.4969    1.8325 C   0  0  0  0  0  0  0  0  0  0  0  0
    1.5402    1.6984    2.9638 C   0  0  0  0  0  0  0  0  0  0  0  0
    2.9307    1.6851    3.1687 C   0  0  0  0  0  0  0  0  0  0  0  0
    3.4852    0.9057    4.1883 C   0  0  0  0  0  0  0  0  0  0  0  0
    2.6580    0.1330    5.0079 C   0  0  0  0  0  0  0  0  0  0  0  0
    1.2748    0.1371    4.8078 C   0  0  0  0  0  0  0  0  0  0  0  0
    0.7165    0.9138    3.7881 C   0  0  0  0  0  0  0  0  0  0  0  0
    2.7496   -1.8250   -1.3289 H   0  0  0  0  0  0  0  0  0  0  0  0
    3.5226   -1.3938   -2.9111 H   0  0  0  0  0  0  0  0  0  0  0  0
    2.4426   -0.2375   -2.1344 H   0  0  0  0  0  0  0  0  0  0  0  0
    4.9615   -2.9480   -2.1113 H   0  0  0  0  0  0  0  0  0  0  0  0
    7.6936   -1.1338   -0.5915 H   0  0  0  0  0  0  0  0  0  0  0  0
    7.5805    1.0844    0.4769 H   0  0  0  0  0  0  0  0  0  0  0  0
    5.4561    2.3094    0.5801 H   0  0  0  0  0  0  0  0  0  0  0  0
    1.9247   -0.1143    0.3408 H   0  0  0  0  0  0  0  0  0  0  0  0
   -0.0725    0.8406    0.9290 H   0  0  0  0  0  0  0  0  0  0  0  0
   -1.0208    2.7217   -0.2034 H   0  0  0  0  0  0  0  0  0  0  0  0
    0.5637    3.3681   -0.6909 H   0  0  0  0  0  0  0  0  0  0  0  0
    0.9240    1.5230   -2.2792 H   0  0  0  0  0  0  0  0  0  0  0  0
   -0.1709    3.2336   -3.0793 H   0  0  0  0  0  0  0  0  0  0  0  0
   -0.2093   -0.3263   -1.1261 H   0  0  0  0  0  0  0  0  0  0  0  0
    0.1587   -0.4297   -3.5991 H   0  0  0  0  0  0  0  0  0  0  0  0
   -1.4874    0.2124   -3.8755 H   0  0  0  0  0  0  0  0  0  0  0  0
    0.4658   -2.6438   -2.4085 H   0  0  0  0  0  0  0  0  0  0  0  0
   -0.4578   -4.9153   -2.1118 H   0  0  0  0  0  0  0  0  0  0  0  0
   -2.8590   -5.3522   -2.5474 H   0  0  0  0  0  0  0  0  0  0  0  0
   -4.3417   -3.5075   -3.2858 H   0  0  0  0  0  0  0  0  0  0  0  0
   -3.4351   -1.2321   -3.5935 H   0  0  0  0  0  0  0  0  0  0  0  0
   -2.8188    1.1461   -1.7519 H   0  0  0  0  0  0  0  0  0  0  0  0
   -4.8562   -0.2128   -1.7196 H   0  0  0  0  0  0  0  0  0  0  0  0
   -7.2070   -0.0103   -1.0417 H   0  0  0  0  0  0  0  0  0  0  0  0
   -7.8111    0.1695    1.3409 H   0  0  0  0  0  0  0  0  0  0  0  0
   -7.0987    0.2678    3.6749 H   0  0  0  0  0  0  0  0  0  0  0  0
   -2.9832   -0.9430    2.9564 H   0  0  0  0  0  0  0  0  0  0  0  0
   -2.4836    0.7037    2.3853 H   0  0  0  0  0  0  0  0  0  0  0  0
   -3.7061    0.5470    3.6703 H   0  0  0  0  0  0  0  0  0  0  0  0
   -0.0098    2.9559    2.1776 H   0  0  0  0  0  0  0  0  0  0  0  0
    1.6183    3.3360    1.5593 H   0  0  0  0  0  0  0  0  0  0  0  0
    3.5847    2.2737    2.5379 H   0  0  0  0  0  0  0  0  0  0  0  0
    4.5567    0.8987    4.3410 H   0  0  0  0  0  0  0  0  0  0  0  0
    3.0889   -0.4705    5.7962 H   0  0  0  0  0  0  0  0  0  0  0  0
    0.6353   -0.4647    5.4406 H   0  0  0  0  0  0  0  0  0  0  0  0
   -0.3552    0.9016    3.6387 H   0  0  0  0  0  0  0  0  0  0  0  0
  1  2  1  0
  2  3  2  0
  3  4  1  0
  3  5  1  0
  5  6  2  0
  6  7  1  0
  7  8  2  0
  8  9  1  0
  9 10  2  0
  9 11  1  0
 11 12  1  0
 12 13  1  0
 13 14  1  0
 14 15  1  0
 14 16  1  0
 16 17  1  0
 17 18  1  0
 18 19  2  0
 19 20  1  0
 20 21  2  0
 21 22  1  0
 22 23  2  0
 16 24  1  0
 24 25  1  0
 25 26  2  0
 25 27  1  0
 27 28  2  0
 28 29  1  0
 29 30  2  0
 30 31  1  0
 31 32  1  0
 31 33  2  0
 33 34  1  0
 12 35  1  0
 35 36  1  0
 36 37  2  0
 37 38  1  0
 38 39  2  0
 39 40  1  0
 40 41  2  0
  8  2  1  0
 23 18  1  0
 33 27  1  0
 41 36  1  0
  1 42  1  0
  1 43  1  0
  1 44  1  0
  4 45  1  0
  5 46  1  0
  6 47  1  0
  7 48  1  0
 11 49  1  0
 12 50  1  1
 13 51  1  0
 13 52  1  0
 14 53  1  6
 15 54  1  0
 16 55  1  1
 17 56  1  0
 17 57  1  0
 19 58  1  0
 20 59  1  0
 21 60  1  0
 22 61  1  0
 23 62  1  0
 24 63  1  0
 28 64  1  0
 29 65  1  0
 30 66  1  0
 32 67  1  0
 34 68  1  0
 34 69  1  0
 34 70  1  0
 35 71  1  0
 35 72  1  0
 37 73  1  0
 38 74  1  0
 39 75  1  0
 40 76  1  0
 41 77  1  0
M  END
$$$$
