
     RDKit          3D

 79 80  0  0  0  0  0  0  0  0999 V2000
    7.2165   -2.3407    1.2051 C   0  0  0  0  0  0  0  0  0  0  0  0
    7.2879   -1.4390   -0.0395 C   0  0  0  0  0  0  0  0  0  0  0  0
    6.7888   -2.2073   -1.2729 C   0  0  0  0  0  0  0  0  0  0  0  0
    6.5361   -0.0853    0.1256 C   0  0  2  0  0  0  0  0  0  0  0  0
    7.2137    0.8360    1.1528 C   0  0  0  0  0  0  0  0  0  0  0  0
    5.0675   -0.2675    0.4430 C   0  0  0  0  0  0  0  0  0  0  0  0
    4.7012   -0.4388    1.6384 O   0  0  0  0  0  0  0  0  0  0  0  0
    4.1017   -0.2753   -0.6220 N   0  0  0  0  0  0  0  0  0  0  0  0
    2.6989   -0.5256   -0.4327 C   0  0  0  0  0  0  0  0  0  0  0  0
    2.2656   -0.8868    0.6960 O   0  0  0  0  0  0  0  0  0  0  0  0
    1.7558   -0.4412   -1.6196 C   0  0  2  0  0  0  0  0  0  0  0  0
    2.0816    0.6433   -2.4559 O   0  0  0  0  0  0  0  0  0  0  0  0
    0.2479   -0.4195   -1.2279 C   0  0  2  0  0  0  0  0  0  0  0  0
   -0.5664   -0.6674   -2.3489 O   0  0  0  0  0  0  0  0  0  0  0  0
   -0.1992    0.8755   -0.4880 C   0  0  1  0  0  0  0  0  0  0  0  0
   -0.1893    1.9812   -1.3614 O   0  0  0  0  0  0  0  0  0  0  0  0
   -1.5821    0.7307    0.2049 C   0  0  1  0  0  0  0  0  0  0  0  0
   -1.5242   -0.2523    1.2461 O   0  0  0  0  0  0  0  0  0  0  0  0
   -1.9459   -1.5926    1.1793 C   0  0  0  0  0  0  0  0  0  0  0  0
   -1.7806   -2.3807    2.3229 C   0  0  0  0  0  0  0  0  0  0  0  0
   -2.1729   -3.7215    2.3310 C   0  0  0  0  0  0  0  0  0  0  0  0
   -2.7509   -4.3043    1.1905 C   0  0  0  0  0  0  0  0  0  0  0  0
   -3.1543   -5.7339    1.2140 C   0  0  0  0  0  0  0  0  0  0  0  0
   -4.2072   -6.2195    0.4157 C   0  0  0  0  0  0  0  0  0  0  0  0
   -4.5507   -7.5717    0.4770 C   0  0  0  0  0  0  0  0  0  0  0  0
   -3.8551   -8.4289    1.3293 C   0  0  0  0  0  0  0  0  0  0  0  0
   -2.8234   -7.9170    2.1166 C   0  0  0  0  0  0  0  0  0  0  0  0
   -2.5018   -6.5980    2.0435 N   0  0  0  0  0  0  0  0  0  0  0  0
   -2.9084   -3.5157    0.0358 C   0  0  0  0  0  0  0  0  0  0  0  0
   -2.5150   -2.1740    0.0292 C   0  0  0  0  0  0  0  0  0  0  0  0
   -1.9736    2.0440    0.8302 C   0  0  0  0  0  0  0  0  0  0  0  0
   -1.4750    2.3715    1.9418 O   0  0  0  0  0  0  0  0  0  0  0  0
   -2.8658    2.9341    0.1382 N   0  0  0  0  0  0  0  0  0  0  0  0
   -3.2350    4.2373    0.6190 C   0  0  0  0  0  0  0  0  0  0  0  0
   -2.7731    4.6702    1.7108 O   0  0  0  0  0  0  0  0  0  0  0  0
   -4.1315    5.1159   -0.2246 C   0  0  1  0  0  0  0  0  0  0  0  0
   -4.9783    6.0574    0.6519 C   0  0  0  0  0  0  0  0  0  0  0  0
   -3.3073    5.8463   -1.3258 C   0  0  0  0  0  0  0  0  0  0  0  0
   -2.3312    6.8953   -0.7674 C   0  0  0  0  0  0  0  0  0  0  0  0
   -4.2112    6.4787   -2.3948 C   0  0  0  0  0  0  0  0  0  0  0  0
    7.8193   -3.2593    1.0404 H   0  0  0  0  0  0  0  0  0  0  0  0
    7.6349   -1.8254    2.0932 H   0  0  0  0  0  0  0  0  0  0  0  0
    6.1709   -2.6470    1.4182 H   0  0  0  0  0  0  0  0  0  0  0  0
    8.3620   -1.2104   -0.2207 H   0  0  0  0  0  0  0  0  0  0  0  0
    5.7352   -2.5324   -1.1385 H   0  0  0  0  0  0  0  0  0  0  0  0
    7.4165   -3.1084   -1.4413 H   0  0  0  0  0  0  0  0  0  0  0  0
    6.8562   -1.5691   -2.1796 H   0  0  0  0  0  0  0  0  0  0  0  0
    6.6092    0.4541   -0.8451 H   0  0  0  0  0  0  0  0  0  0  0  0
    8.2848    0.9777    0.8950 H   0  0  0  0  0  0  0  0  0  0  0  0
    7.1442    0.4241    2.1808 H   0  0  0  0  0  0  0  0  0  0  0  0
    6.7235    1.8333    1.1447 H   0  0  0  0  0  0  0  0  0  0  0  0
    4.4417   -0.1020   -1.5947 H   0  0  0  0  0  0  0  0  0  0  0  0
    1.9232   -1.3694   -2.2074 H   0  0  0  0  0  0  0  0  0  0  0  0
    2.2156    1.4435   -1.8838 H   0  0  0  0  0  0  0  0  0  0  0  0
    0.1013   -1.2779   -0.5420 H   0  0  0  0  0  0  0  0  0  0  0  0
   -0.3051   -0.0352   -3.0672 H   0  0  0  0  0  0  0  0  0  0  0  0
    0.5414    1.0852    0.3137 H   0  0  0  0  0  0  0  0  0  0  0  0
   -0.9704    1.9005   -1.9683 H   0  0  0  0  0  0  0  0  0  0  0  0
   -2.3588    0.4763   -0.5422 H   0  0  0  0  0  0  0  0  0  0  0  0
   -1.3423   -1.9497    3.2142 H   0  0  0  0  0  0  0  0  0  0  0  0
   -2.0344   -4.2995    3.2363 H   0  0  0  0  0  0  0  0  0  0  0  0
   -4.7762   -5.5638   -0.2296 H   0  0  0  0  0  0  0  0  0  0  0  0
   -5.3606   -7.9532   -0.1314 H   0  0  0  0  0  0  0  0  0  0  0  0
   -4.1164   -9.4778    1.3837 H   0  0  0  0  0  0  0  0  0  0  0  0
   -2.2778   -8.5676    2.7868 H   0  0  0  0  0  0  0  0  0  0  0  0
   -3.3109   -3.9375   -0.8755 H   0  0  0  0  0  0  0  0  0  0  0  0
   -2.6469   -1.6186   -0.8853 H   0  0  0  0  0  0  0  0  0  0  0  0
   -3.2496    2.6278   -0.7841 H   0  0  0  0  0  0  0  0  0  0  0  0
   -4.8508    4.4385   -0.7367 H   0  0  0  0  0  0  0  0  0  0  0  0
   -5.6986    6.6304    0.0332 H   0  0  0  0  0  0  0  0  0  0  0  0
   -4.3417    6.7677    1.2192 H   0  0  0  0  0  0  0  0  0  0  0  0
   -5.5666    5.4609    1.3817 H   0  0  0  0  0  0  0  0  0  0  0  0
   -2.6955    5.0768   -1.8491 H   0  0  0  0  0  0  0  0  0  0  0  0
   -2.8762    7.7517   -0.3182 H   0  0  0  0  0  0  0  0  0  0  0  0
   -1.6900    7.2858   -1.5863 H   0  0  0  0  0  0  0  0  0  0  0  0
   -1.6643    6.4457   -0.0031 H   0  0  0  0  0  0  0  0  0  0  0  0
   -3.5942    6.8449   -3.2431 H   0  0  0  0  0  0  0  0  0  0  0  0
   -4.7794    7.3389   -1.9833 H   0  0  0  0  0  0  0  0  0  0  0  0
   -4.9267    5.7275   -2.7918 H   0  0  0  0  0  0  0  0  0  0  0  0
  1  2  1  0
  2  3  1  0
  2  4  1  0
  4  5  1  0
  4  6  1  0
  6  7  2  0
  6  8  1  0
  8  9  1  0
  9 10  2  0
  9 11  1  0
 11 12  1  0
 11 13  1  0
 13 14  1  0
 13 15  1  0
 15 16  1  0
 15 17  1  0
 17 18  1  0
 18 19  1  0
 19 20  2  0
 20 21  1  0
 21 22  2  0
 22 23  1  0
 23 24  2  0
 24 25  1  0
 25 26  2  0
 26 27  1  0
 27 28  2  0
 22 29  1  0
 29 30  2  0
 17 31  1  0
 31 32  2  0
 31 33  1  0
 33 34  1  0
 34 35  2  0
 34 36  1  0
 36 37  1  0
 36 38  1  0
 38 39  1  0
 38 40  1  0
 28 23  1  0
 30 19  1  0
  1 41  1  0
  1 42  1  0
  1 43  1  0
  2 44  1  0
  3 45  1  0
  3 46  1  0
  3 47  1  0
  4 48  1  6
  5 49  1  0
  5 50  1  0
  5 51  1  0
  8 52  1  0
 11 53  1  6
 12 54  1  0
 13 55  1  1
 14 56  1  0
 15 57  1  1
 16 58  1  0
 17 59  1  6
 20 60  1  0
 21 61  1  0
 24 62  1  0
 25 63  1  0
 26 64  1  0
 27 65  1  0
 29 66  1  0
 30 67  1  0
 33 68  1  0
 36 69  1  6
 37 70  1  0
 37 71  1  0
 37 72  1  0
 38 73  1  0
 39 74  1  0
 39 75  1  0
 39 76  1  0
 40 77  1  0
 40 78  1  0
 40 79  1  0
M  END
$$$$
