
     RDKit          3D

 86 88  0  0  0  0  0  0  0  0999 V2000
   -4.9371    0.2971   -4.0041 C   0  0  0  0  0  0  0  0  0  0  0  0
   -4.0562   -0.2176   -2.8582 C   0  0  0  0  0  0  0  0  0  0  0  0
   -3.0724   -1.2675   -3.3968 C   0  0  0  0  0  0  0  0  0  0  0  0
   -4.9363   -0.7932   -1.7227 C   0  0  0  0  0  0  0  0  0  0  0  0
   -4.2087   -0.8794   -0.3705 C   0  0  0  0  0  0  0  0  0  0  0  0
   -3.9108    0.4741    0.1541 N   0  0  0  0  0  0  0  0  0  0  0  0
   -2.6141    0.5188    0.8618 C   0  0  0  0  0  0  0  0  0  0  0  0
   -1.4554    0.7292   -0.1302 C   0  0  1  0  0  0  0  0  0  0  0  0
   -1.5807    1.9981   -0.7230 O   0  0  0  0  0  0  0  0  0  0  0  0
   -0.0703    0.5765    0.5482 C   0  0  2  0  0  0  0  0  0  0  0  0
    0.1870    1.6318    1.6524 C   0  0  0  0  0  0  0  0  0  0  0  0
    1.6009    1.5625    2.1787 C   0  0  0  0  0  0  0  0  0  0  0  0
    2.4741    2.6507    2.0208 C   0  0  0  0  0  0  0  0  0  0  0  0
    3.8035    2.5554    2.4419 C   0  0  0  0  0  0  0  0  0  0  0  0
    4.2907    1.3614    2.9851 C   0  0  0  0  0  0  0  0  0  0  0  0
    5.6642    1.2584    3.2554 O   0  0  0  0  0  0  0  0  0  0  0  0
    6.4445    0.0780    3.0356 C   0  0  0  0  0  0  0  0  0  0  0  0
    6.8959   -0.0402    1.5698 C   0  0  0  0  0  0  0  0  0  0  0  0
    5.7190   -0.0215    0.5852 C   0  0  0  0  0  0  0  0  0  0  0  0
    6.1481   -0.3774   -0.8404 C   0  0  0  0  0  0  0  0  0  0  0  0
    5.0199   -0.0888   -1.7857 C   0  0  0  0  0  0  0  0  0  0  0  0
    5.0952    0.9047   -2.5584 O   0  0  0  0  0  0  0  0  0  0  0  0
    3.8355   -0.8974   -1.7566 N   0  0  0  0  0  0  0  0  0  0  0  0
    2.5317   -0.4084   -2.2176 C   0  0  1  0  0  0  0  0  0  0  0  0
    2.0628   -1.2014   -3.4663 C   0  0  0  0  0  0  0  0  0  0  0  0
    3.1009   -1.1221   -4.5966 C   0  0  0  0  0  0  0  0  0  0  0  0
    0.7095   -0.6817   -3.9798 C   0  0  0  0  0  0  0  0  0  0  0  0
    1.5449   -0.5316   -1.0811 C   0  0  0  0  0  0  0  0  0  0  0  0
    1.2288   -1.6774   -0.6577 O   0  0  0  0  0  0  0  0  0  0  0  0
    0.9815    0.6428   -0.4750 N   0  0  0  0  0  0  0  0  0  0  0  0
    3.4021    0.2941    3.2054 C   0  0  0  0  0  0  0  0  0  0  0  0
    2.0662    0.3979    2.8100 C   0  0  0  0  0  0  0  0  0  0  0  0
   -5.1850    1.0167    1.2310 S   0  0  0  0  0  0  0  0  0  0  0  0
   -6.5262    0.8679    0.5686 O   0  0  0  0  0  0  0  0  0  0  0  0
   -4.9835    2.4743    1.5399 O   0  0  0  0  0  0  0  0  0  0  0  0
   -5.1814    0.1015    2.7422 C   0  0  0  0  0  0  0  0  0  0  0  0
   -5.9886   -1.0378    2.8826 C   0  0  0  0  0  0  0  0  0  0  0  0
   -5.9762   -1.7662    4.0762 C   0  0  0  0  0  0  0  0  0  0  0  0
   -5.1614   -1.3596    5.1363 C   0  0  0  0  0  0  0  0  0  0  0  0
   -4.3600   -0.2222    5.0050 C   0  0  0  0  0  0  0  0  0  0  0  0
   -4.3706    0.5085    3.8130 C   0  0  0  0  0  0  0  0  0  0  0  0
   -4.3063    0.7169   -4.8167 H   0  0  0  0  0  0  0  0  0  0  0  0
   -5.6064    1.1058   -3.6403 H   0  0  0  0  0  0  0  0  0  0  0  0
   -5.5592   -0.5249   -4.4195 H   0  0  0  0  0  0  0  0  0  0  0  0
   -3.4741    0.6484   -2.4752 H   0  0  0  0  0  0  0  0  0  0  0  0
   -2.3871   -1.6179   -2.5995 H   0  0  0  0  0  0  0  0  0  0  0  0
   -2.4522   -0.8280   -4.2067 H   0  0  0  0  0  0  0  0  0  0  0  0
   -3.6190   -2.1442   -3.8058 H   0  0  0  0  0  0  0  0  0  0  0  0
   -5.8418   -0.1646   -1.5971 H   0  0  0  0  0  0  0  0  0  0  0  0
   -5.2951   -1.8074   -2.0051 H   0  0  0  0  0  0  0  0  0  0  0  0
   -4.8364   -1.4592    0.3385 H   0  0  0  0  0  0  0  0  0  0  0  0
   -3.2880   -1.4864   -0.5008 H   0  0  0  0  0  0  0  0  0  0  0  0
   -2.5959    1.3750    1.5688 H   0  0  0  0  0  0  0  0  0  0  0  0
   -2.4581   -0.4076    1.4606 H   0  0  0  0  0  0  0  0  0  0  0  0
   -1.5258   -0.0591   -0.9134 H   0  0  0  0  0  0  0  0  0  0  0  0
   -1.1553    1.9457   -1.6185 H   0  0  0  0  0  0  0  0  0  0  0  0
   -0.0462   -0.4225    1.0365 H   0  0  0  0  0  0  0  0  0  0  0  0
   -0.5004    1.4581    2.5073 H   0  0  0  0  0  0  0  0  0  0  0  0
   -0.0271    2.6483    1.2563 H   0  0  0  0  0  0  0  0  0  0  0  0
    2.1345    3.5653    1.5510 H   0  0  0  0  0  0  0  0  0  0  0  0
    4.4749    3.3898    2.2841 H   0  0  0  0  0  0  0  0  0  0  0  0
    7.3536    0.1435    3.6697 H   0  0  0  0  0  0  0  0  0  0  0  0
    5.9044   -0.8382    3.3479 H   0  0  0  0  0  0  0  0  0  0  0  0
    7.4609   -0.9909    1.4543 H   0  0  0  0  0  0  0  0  0  0  0  0
    7.5847    0.7999    1.3326 H   0  0  0  0  0  0  0  0  0  0  0  0
    4.9383   -0.7405    0.9183 H   0  0  0  0  0  0  0  0  0  0  0  0
    5.2853    1.0010    0.5692 H   0  0  0  0  0  0  0  0  0  0  0  0
    7.0395    0.2217   -1.1301 H   0  0  0  0  0  0  0  0  0  0  0  0
    6.4162   -1.4542   -0.8982 H   0  0  0  0  0  0  0  0  0  0  0  0
    3.8923   -1.8478   -1.3243 H   0  0  0  0  0  0  0  0  0  0  0  0
    2.6102    0.6645   -2.5016 H   0  0  0  0  0  0  0  0  0  0  0  0
    1.9412   -2.2733   -3.1926 H   0  0  0  0  0  0  0  0  0  0  0  0
    4.0579   -1.5883   -4.2813 H   0  0  0  0  0  0  0  0  0  0  0  0
    2.7394   -1.6730   -5.4911 H   0  0  0  0  0  0  0  0  0  0  0  0
    3.2909   -0.0646   -4.8802 H   0  0  0  0  0  0  0  0  0  0  0  0
    0.3850   -1.2631   -4.8691 H   0  0  0  0  0  0  0  0  0  0  0  0
    0.7818    0.3915   -4.2590 H   0  0  0  0  0  0  0  0  0  0  0  0
   -0.0724   -0.7949   -3.2013 H   0  0  0  0  0  0  0  0  0  0  0  0
    1.2436    1.5803   -0.8561 H   0  0  0  0  0  0  0  0  0  0  0  0
    3.7325   -0.6216    3.6736 H   0  0  0  0  0  0  0  0  0  0  0  0
    1.4015   -0.4412    2.9723 H   0  0  0  0  0  0  0  0  0  0  0  0
   -6.6254   -1.3639    2.0703 H   0  0  0  0  0  0  0  0  0  0  0  0
   -6.5984   -2.6458    4.1792 H   0  0  0  0  0  0  0  0  0  0  0  0
   -5.1524   -1.9244    6.0596 H   0  0  0  0  0  0  0  0  0  0  0  0
   -3.7309    0.0936    5.8272 H   0  0  0  0  0  0  0  0  0  0  0  0
   -3.7470    1.3888    3.7272 H   0  0  0  0  0  0  0  0  0  0  0  0
  1  2  1  0
  2  3  1  0
  2  4  1  0
  4  5  1  0
  5  6  1  0
  6  7  1  0
  7  8  1  0
  8  9  1  0
  8 10  1  0
 10 11  1  0
 11 12  1  0
 12 13  2  0
 13 14  1  0
 14 15  2  0
 15 16  1  0
 16 17  1  0
 17 18  1  0
 18 19  1  0
 19 20  1  0
 20 21  1  0
 21 22  2  0
 21 23  1  0
 23 24  1  0
 24 25  1  0
 25 26  1  0
 25 27  1  0
 24 28  1  0
 28 29  2  0
 28 30  1  0
 15 31  1  0
 31 32  2  0
  6 33  1  0
 33 34  2  0
 33 35  2  0
 33 36  1  0
 36 37  2  0
 37 38  1  0
 38 39  2  0
 39 40  1  0
 40 41  2  0
 30 10  1  0
 32 12  1  0
 41 36  1  0
  1 42  1  0
  1 43  1  0
  1 44  1  0
  2 45  1  0
  3 46  1  0
  3 47  1  0
  3 48  1  0
  4 49  1  0
  4 50  1  0
  5 51  1  0
  5 52  1  0
  7 53  1  0
  7 54  1  0
  8 55  1  6
  9 56  1  0
 10 57  1  1
 11 58  1  0
 11 59  1  0
 13 60  1  0
 14 61  1  0
 17 62  1  0
 17 63  1  0
 18 64  1  0
 18 65  1  0
 19 66  1  0
 19 67  1  0
 20 68  1  0
 20 69  1  0
 23 70  1  0
 24 71  1  6
 25 72  1  0
 26 73  1  0
 26 74  1  0
 26 75  1  0
 27 76  1  0
 27 77  1  0
 27 78  1  0
 30 79  1  0
 31 80  1  0
 32 81  1  0
 37 82  1  0
 38 83  1  0
 39 84  1  0
 40 85  1  0
 41 86  1  0
M  END
$$$$
