
     RDKit          3D

 69 74  0  0  0  0  0  0  0  0999 V2000
   -2.1793    3.6364    0.8751 O   0  0  0  0  0  0  0  0  0  0  0  0
   -2.6662    2.4368    0.3491 C   0  0  0  0  0  0  0  0  0  0  0  0
   -3.9288    2.4364   -0.0587 O   0  0  0  0  0  0  0  0  0  0  0  0
   -4.5563    1.3743   -0.5482 C   0  0  0  0  0  0  0  0  0  0  0  0
   -6.0001    1.5564   -0.9495 C   0  0  0  0  0  0  0  0  0  0  0  0
   -6.9774    1.1789    0.1741 C   0  0  0  0  0  0  0  0  0  0  0  0
   -7.2076   -0.3357    0.3304 C   0  0  0  0  0  0  0  0  0  0  0  0
   -6.0440   -1.0643    1.0345 C   0  0  0  0  0  0  0  0  0  0  0  0
   -5.1748   -1.9068    0.0839 C   0  0  0  0  0  0  0  0  0  0  0  0
   -4.5752   -1.1268   -1.0953 C   0  0  0  0  0  0  0  0  0  0  0  0
   -3.8763    0.1414   -0.6437 C   0  0  0  0  0  0  0  0  0  0  0  0
   -2.5384    0.0897   -0.2138 C   0  0  0  0  0  0  0  0  0  0  0  0
   -1.9223   -1.0109   -0.2417 O   0  0  0  0  0  0  0  0  0  0  0  0
   -1.8876    1.2542    0.2533 C   0  0  0  0  0  0  0  0  0  0  0  0
   -0.4108    1.2068    0.6504 C   0  0  0  0  0  0  0  0  0  0  0  0
   -0.2538    0.4289    1.9789 C   0  0  0  0  0  0  0  0  0  0  0  0
    1.0483    0.6761    2.7284 C   0  0  0  0  0  0  0  0  0  0  0  0
   -0.2519    1.2680    3.2493 C   0  0  0  0  0  0  0  0  0  0  0  0
    0.4449    0.6585   -0.4866 C   0  0  0  0  0  0  0  0  0  0  0  0
    0.6554    1.4650   -1.6195 C   0  0  0  0  0  0  0  0  0  0  0  0
    1.4365    1.0091   -2.6830 C   0  0  0  0  0  0  0  0  0  0  0  0
    2.0292   -0.2526   -2.6268 C   0  0  0  0  0  0  0  0  0  0  0  0
    1.8466   -1.0684   -1.5038 C   0  0  0  0  0  0  0  0  0  0  0  0
    2.4795   -2.3521   -1.4527 N   0  0  0  0  0  0  0  0  0  0  0  0
    3.4955   -2.8366   -0.1302 S   0  0  0  0  0  0  0  0  0  0  0  0
    2.8960   -2.4548    1.1939 O   0  0  0  0  0  0  0  0  0  0  0  0
    3.6079   -4.3355   -0.1534 O   0  0  0  0  0  0  0  0  0  0  0  0
    5.1081   -2.1150   -0.3283 C   0  0  0  0  0  0  0  0  0  0  0  0
    6.1304   -2.9392   -0.8280 C   0  0  0  0  0  0  0  0  0  0  0  0
    7.4138   -2.4421   -1.0446 C   0  0  0  0  0  0  0  0  0  0  0  0
    7.7044   -1.1080   -0.7774 C   0  0  0  0  0  0  0  0  0  0  0  0
    6.7089   -0.2531   -0.2878 C   0  0  0  0  0  0  0  0  0  0  0  0
    7.0132    1.0941   -0.0343 C   0  0  0  0  0  0  0  0  0  0  0  0
    6.0315    1.9587    0.4476 C   0  0  0  0  0  0  0  0  0  0  0  0
    4.7423    1.4877    0.6856 C   0  0  0  0  0  0  0  0  0  0  0  0
    4.4243    0.1496    0.4436 C   0  0  0  0  0  0  0  0  0  0  0  0
    5.3945   -0.7473   -0.0528 C   0  0  0  0  0  0  0  0  0  0  0  0
    1.0269   -0.6268   -0.4543 C   0  0  0  0  0  0  0  0  0  0  0  0
   -1.3024    3.7467    1.3604 H   0  0  0  0  0  0  0  0  0  0  0  0
   -6.1515    2.6348   -1.1750 H   0  0  0  0  0  0  0  0  0  0  0  0
   -6.2480    1.0325   -1.8938 H   0  0  0  0  0  0  0  0  0  0  0  0
   -7.9594    1.6399   -0.0706 H   0  0  0  0  0  0  0  0  0  0  0  0
   -6.6506    1.6260    1.1389 H   0  0  0  0  0  0  0  0  0  0  0  0
   -7.4475   -0.7971   -0.6520 H   0  0  0  0  0  0  0  0  0  0  0  0
   -8.1167   -0.4637    0.9583 H   0  0  0  0  0  0  0  0  0  0  0  0
   -5.4061   -0.3536    1.6038 H   0  0  0  0  0  0  0  0  0  0  0  0
   -6.4706   -1.7595    1.7906 H   0  0  0  0  0  0  0  0  0  0  0  0
   -4.3468   -2.3565    0.6743 H   0  0  0  0  0  0  0  0  0  0  0  0
   -5.7833   -2.7463   -0.3176 H   0  0  0  0  0  0  0  0  0  0  0  0
   -3.8530   -1.7877   -1.6215 H   0  0  0  0  0  0  0  0  0  0  0  0
   -5.3561   -0.9255   -1.8518 H   0  0  0  0  0  0  0  0  0  0  0  0
   -0.0150    2.2274    0.8001 H   0  0  0  0  0  0  0  0  0  0  0  0
   -0.6804   -0.5906    2.0950 H   0  0  0  0  0  0  0  0  0  0  0  0
    1.4148   -0.1982    3.3063 H   0  0  0  0  0  0  0  0  0  0  0  0
    1.7374    1.4201    2.2746 H   0  0  0  0  0  0  0  0  0  0  0  0
   -0.6496    0.7488    4.1466 H   0  0  0  0  0  0  0  0  0  0  0  0
   -0.3205    2.3687    3.1248 H   0  0  0  0  0  0  0  0  0  0  0  0
    0.2103    2.4508   -1.6781 H   0  0  0  0  0  0  0  0  0  0  0  0
    1.5889    1.6389   -3.5499 H   0  0  0  0  0  0  0  0  0  0  0  0
    2.6460   -0.5894   -3.4505 H   0  0  0  0  0  0  0  0  0  0  0  0
    2.6128   -2.8706   -2.3496 H   0  0  0  0  0  0  0  0  0  0  0  0
    5.9364   -3.9776   -1.0620 H   0  0  0  0  0  0  0  0  0  0  0  0
    8.1869   -3.0951   -1.4288 H   0  0  0  0  0  0  0  0  0  0  0  0
    8.7085   -0.7423   -0.9583 H   0  0  0  0  0  0  0  0  0  0  0  0
    8.0106    1.4788   -0.2119 H   0  0  0  0  0  0  0  0  0  0  0  0
    6.2714    2.9967    0.6387 H   0  0  0  0  0  0  0  0  0  0  0  0
    3.9840    2.1624    1.0621 H   0  0  0  0  0  0  0  0  0  0  0  0
    3.4181   -0.1592    0.6562 H   0  0  0  0  0  0  0  0  0  0  0  0
    0.8438   -1.2906    0.3765 H   0  0  0  0  0  0  0  0  0  0  0  0
  1  2  1  0
  2  3  1  0
  3  4  1  0
  4  5  1  0
  5  6  1  0
  6  7  1  0
  7  8  1  0
  8  9  1  0
  9 10  1  0
 10 11  1  0
 11 12  1  0
 12 13  2  0
 12 14  1  0
 14 15  1  0
 15 16  1  0
 16 17  1  0
 17 18  1  0
 15 19  1  0
 19 20  2  0
 20 21  1  0
 21 22  2  0
 22 23  1  0
 23 24  1  0
 24 25  1  0
 25 26  2  0
 25 27  2  0
 25 28  1  0
 28 29  2  0
 29 30  1  0
 30 31  2  0
 31 32  1  0
 32 33  2  0
 33 34  1  0
 34 35  2  0
 35 36  1  0
 36 37  2  0
 23 38  2  0
 11  4  2  0
 14  2  2  0
 18 16  1  0
 37 28  1  0
 37 32  1  0
 38 19  1  0
  1 39  1  0
  5 40  1  0
  5 41  1  0
  6 42  1  0
  6 43  1  0
  7 44  1  0
  7 45  1  0
  8 46  1  0
  8 47  1  0
  9 48  1  0
  9 49  1  0
 10 50  1  0
 10 51  1  0
 15 52  1  0
 16 53  1  0
 17 54  1  0
 17 55  1  0
 18 56  1  0
 18 57  1  0
 20 58  1  0
 21 59  1  0
 22 60  1  0
 24 61  1  0
 29 62  1  0
 30 63  1  0
 31 64  1  0
 33 65  1  0
 34 66  1  0
 35 67  1  0
 36 68  1  0
 38 69  1  0
M  END
$$$$
