
     RDKit          3D

 80 83  0  0  0  0  0  0  0  0999 V2000
   -8.5081    2.0032    2.6139 C   0  0  0  0  0  0  0  0  0  0  0  0
   -7.7372    1.0871    1.8433 O   0  0  0  0  0  0  0  0  0  0  0  0
   -6.4954    1.3885    1.2647 C   0  0  0  0  0  0  0  0  0  0  0  0
   -5.8873    2.6524    1.3958 C   0  0  0  0  0  0  0  0  0  0  0  0
   -4.6465    2.9024    0.8014 C   0  0  0  0  0  0  0  0  0  0  0  0
   -3.9985    1.8967    0.0728 C   0  0  0  0  0  0  0  0  0  0  0  0
   -2.4293    2.1928   -0.6690 S   0  0  0  0  0  0  0  0  0  0  0  0
   -1.7791    3.3974   -0.0453 O   0  0  0  0  0  0  0  0  0  0  0  0
   -2.6365    2.4470   -2.1361 O   0  0  0  0  0  0  0  0  0  0  0  0
   -1.4056    0.7946   -0.4371 N   0  0  0  0  0  0  0  0  0  0  0  0
   -1.0997    0.6312    1.0002 C   0  0  0  0  0  0  0  0  0  0  0  0
   -0.6468   -0.8109    1.3141 C   0  0  0  0  0  0  0  0  0  0  0  0
   -1.7711   -1.8165    1.0281 C   0  0  0  0  0  0  0  0  0  0  0  0
   -0.1989   -0.9214    2.7758 C   0  0  0  0  0  0  0  0  0  0  0  0
   -0.1818    0.8914   -1.2665 C   0  0  0  0  0  0  0  0  0  0  0  0
   -0.1657   -0.2520   -2.2982 C   0  0  1  0  0  0  0  0  0  0  0  0
   -1.1223    0.0128   -3.2930 O   0  0  0  0  0  0  0  0  0  0  0  0
    1.2326   -0.4068   -2.9456 C   0  0  2  0  0  0  0  0  0  0  0  0
    1.2483   -1.4153   -4.1190 C   0  0  0  0  0  0  0  0  0  0  0  0
    0.8813   -2.8245   -3.7143 C   0  0  0  0  0  0  0  0  0  0  0  0
    1.8735   -3.7183   -3.2753 C   0  0  0  0  0  0  0  0  0  0  0  0
    1.5304   -5.0142   -2.8781 C   0  0  0  0  0  0  0  0  0  0  0  0
    0.1970   -5.4296   -2.9195 C   0  0  0  0  0  0  0  0  0  0  0  0
   -0.7952   -4.5508   -3.3617 C   0  0  0  0  0  0  0  0  0  0  0  0
   -0.4564   -3.2543   -3.7606 C   0  0  0  0  0  0  0  0  0  0  0  0
    2.2150   -0.8076   -1.9290 N   0  0  0  0  0  0  0  0  0  0  0  0
    3.2964    0.0272   -1.4993 C   0  0  0  0  0  0  0  0  0  0  0  0
    3.5135    1.1359   -2.0611 O   0  0  0  0  0  0  0  0  0  0  0  0
    4.0977   -0.3962   -0.4339 O   0  0  0  0  0  0  0  0  0  0  0  0
    5.1296    0.4108    0.1361 C   0  0  2  0  0  0  0  0  0  0  0  0
    6.0132   -0.4054    1.0497 C   0  0  0  0  0  0  0  0  0  0  0  0
    6.5801    0.4606    2.0022 O   0  0  0  0  0  0  0  0  0  0  0  0
    5.7036    1.5572    2.1566 C   0  0  2  0  0  0  0  0  0  0  0  0
    5.1708    1.5281    3.4727 O   0  0  0  0  0  0  0  0  0  0  0  0
    4.1856    2.5322    3.6204 C   0  0  0  0  0  0  0  0  0  0  0  0
    2.9252    2.1928    2.8047 C   0  0  0  0  0  0  0  0  0  0  0  0
    3.2351    1.1966    1.6810 C   0  0  0  0  0  0  0  0  0  0  0  0
    4.6156    1.4957    1.0607 C   0  0  2  0  0  0  0  0  0  0  0  0
   -4.6042    0.6418   -0.0640 C   0  0  0  0  0  0  0  0  0  0  0  0
   -5.8434    0.3904    0.5309 C   0  0  0  0  0  0  0  0  0  0  0  0
   -8.7794    2.8865    1.9980 H   0  0  0  0  0  0  0  0  0  0  0  0
   -7.9366    2.3232    3.5107 H   0  0  0  0  0  0  0  0  0  0  0  0
   -9.4402    1.5023    2.9467 H   0  0  0  0  0  0  0  0  0  0  0  0
   -6.3640    3.4464    1.9540 H   0  0  0  0  0  0  0  0  0  0  0  0
   -4.1938    3.8793    0.9117 H   0  0  0  0  0  0  0  0  0  0  0  0
   -0.3202    1.3613    1.3177 H   0  0  0  0  0  0  0  0  0  0  0  0
   -2.0016    0.8437    1.6163 H   0  0  0  0  0  0  0  0  0  0  0  0
    0.2265   -1.0730    0.6785 H   0  0  0  0  0  0  0  0  0  0  0  0
   -2.6625   -1.5972    1.6545 H   0  0  0  0  0  0  0  0  0  0  0  0
   -1.4249   -2.8494    1.2452 H   0  0  0  0  0  0  0  0  0  0  0  0
   -2.0690   -1.7751   -0.0404 H   0  0  0  0  0  0  0  0  0  0  0  0
    0.1496   -1.9535    2.9935 H   0  0  0  0  0  0  0  0  0  0  0  0
   -1.0355   -0.6716    3.4634 H   0  0  0  0  0  0  0  0  0  0  0  0
    0.6451   -0.2269    2.9704 H   0  0  0  0  0  0  0  0  0  0  0  0
    0.7330    0.8379   -0.6421 H   0  0  0  0  0  0  0  0  0  0  0  0
   -0.1069    1.8636   -1.8028 H   0  0  0  0  0  0  0  0  0  0  0  0
   -0.4106   -1.2077   -1.7793 H   0  0  0  0  0  0  0  0  0  0  0  0
   -2.0020   -0.2723   -2.9313 H   0  0  0  0  0  0  0  0  0  0  0  0
    1.5130    0.5791   -3.3784 H   0  0  0  0  0  0  0  0  0  0  0  0
    2.2649   -1.4171   -4.5703 H   0  0  0  0  0  0  0  0  0  0  0  0
    0.5632   -1.0661   -4.9220 H   0  0  0  0  0  0  0  0  0  0  0  0
    2.9106   -3.4090   -3.2345 H   0  0  0  0  0  0  0  0  0  0  0  0
    2.2985   -5.6961   -2.5368 H   0  0  0  0  0  0  0  0  0  0  0  0
   -0.0672   -6.4327   -2.6107 H   0  0  0  0  0  0  0  0  0  0  0  0
   -1.8275   -4.8742   -3.3958 H   0  0  0  0  0  0  0  0  0  0  0  0
   -1.2365   -2.5870   -4.1033 H   0  0  0  0  0  0  0  0  0  0  0  0
    2.0606   -1.6979   -1.4047 H   0  0  0  0  0  0  0  0  0  0  0  0
    5.7611    0.8573   -0.6660 H   0  0  0  0  0  0  0  0  0  0  0  0
    6.8182   -0.9023    0.4677 H   0  0  0  0  0  0  0  0  0  0  0  0
    5.4207   -1.1867    1.5762 H   0  0  0  0  0  0  0  0  0  0  0  0
    6.3064    2.4843    2.0230 H   0  0  0  0  0  0  0  0  0  0  0  0
    4.5853    3.5294    3.3228 H   0  0  0  0  0  0  0  0  0  0  0  0
    3.9142    2.6074    4.6946 H   0  0  0  0  0  0  0  0  0  0  0  0
    2.5094    3.1278    2.3695 H   0  0  0  0  0  0  0  0  0  0  0  0
    2.1497    1.7563    3.4707 H   0  0  0  0  0  0  0  0  0  0  0  0
    2.4426    1.2650    0.9087 H   0  0  0  0  0  0  0  0  0  0  0  0
    3.2233    0.1653    2.0995 H   0  0  0  0  0  0  0  0  0  0  0  0
    4.5620    2.4641    0.5137 H   0  0  0  0  0  0  0  0  0  0  0  0
   -4.1155   -0.1424   -0.6284 H   0  0  0  0  0  0  0  0  0  0  0  0
   -6.3000   -0.5852    0.4213 H   0  0  0  0  0  0  0  0  0  0  0  0
  1  2  1  0
  2  3  1  0
  3  4  2  0
  4  5  1  0
  5  6  2  0
  6  7  1  0
  7  8  2  0
  7  9  2  0
  7 10  1  0
 10 11  1  0
 11 12  1  0
 12 13  1  0
 12 14  1  0
 10 15  1  0
 15 16  1  0
 16 17  1  0
 16 18  1  0
 18 19  1  0
 19 20  1  0
 20 21  2  0
 21 22  1  0
 22 23  2  0
 23 24  1  0
 24 25  2  0
 18 26  1  0
 26 27  1  0
 27 28  2  0
 27 29  1  0
 29 30  1  0
 30 31  1  0
 31 32  1  0
 32 33  1  0
 33 34  1  0
 34 35  1  0
 35 36  1  0
 36 37  1  0
 37 38  1  0
  6 39  1  0
 39 40  2  0
 25 20  1  0
 38 30  1  0
 38 33  1  0
 40  3  1  0
  1 41  1  0
  1 42  1  0
  1 43  1  0
  4 44  1  0
  5 45  1  0
 11 46  1  0
 11 47  1  0
 12 48  1  0
 13 49  1  0
 13 50  1  0
 13 51  1  0
 14 52  1  0
 14 53  1  0
 14 54  1  0
 15 55  1  0
 15 56  1  0
 16 57  1  1
 17 58  1  0
 18 59  1  6
 19 60  1  0
 19 61  1  0
 21 62  1  0
 22 63  1  0
 23 64  1  0
 24 65  1  0
 25 66  1  0
 26 67  1  0
 30 68  1  6
 31 69  1  0
 31 70  1  0
 33 71  1  6
 35 72  1  0
 35 73  1  0
 36 74  1  0
 36 75  1  0
 37 76  1  0
 37 77  1  0
 38 78  1  6
 39 79  1  0
 40 80  1  0
M  END
$$$$
