
     RDKit          3D

 69 74  0  0  0  0  0  0  0  0999 V2000
   -2.8261    0.4645    2.7041 O   0  0  0  0  0  0  0  0  0  0  0  0
   -2.3575    0.0624    1.4563 C   0  0  0  0  0  0  0  0  0  0  0  0
   -2.7240   -1.1249    0.9901 O   0  0  0  0  0  0  0  0  0  0  0  0
   -2.3373   -1.6076   -0.1858 C   0  0  0  0  0  0  0  0  0  0  0  0
   -2.8753   -2.9615   -0.5809 C   0  0  0  0  0  0  0  0  0  0  0  0
   -4.1375   -2.8625   -1.4507 C   0  0  0  0  0  0  0  0  0  0  0  0
   -3.8602   -2.5445   -2.9319 C   0  0  0  0  0  0  0  0  0  0  0  0
   -3.5186   -1.0619   -3.1887 C   0  0  0  0  0  0  0  0  0  0  0  0
   -2.0286   -0.8110   -3.4821 C   0  0  0  0  0  0  0  0  0  0  0  0
   -1.0690   -1.3120   -2.3931 C   0  0  0  0  0  0  0  0  0  0  0  0
   -1.4804   -0.8429   -1.0113 C   0  0  0  0  0  0  0  0  0  0  0  0
   -1.0881    0.4304   -0.5582 C   0  0  0  0  0  0  0  0  0  0  0  0
   -0.3574    1.1547   -1.2880 O   0  0  0  0  0  0  0  0  0  0  0  0
   -1.5183    0.9008    0.6995 C   0  0  0  0  0  0  0  0  0  0  0  0
   -1.1328    2.2843    1.2144 C   0  0  0  0  0  0  0  0  0  0  0  0
   -1.8113    3.3724    0.3494 C   0  0  0  0  0  0  0  0  0  0  0  0
   -2.0166    4.7193    1.0274 C   0  0  0  0  0  0  0  0  0  0  0  0
   -3.2025    3.7936    0.8030 C   0  0  0  0  0  0  0  0  0  0  0  0
    0.3800    2.4219    1.3054 C   0  0  0  0  0  0  0  0  0  0  0  0
    1.1386    3.1602    0.3731 C   0  0  0  0  0  0  0  0  0  0  0  0
    2.5314    3.1982    0.4660 C   0  0  0  0  0  0  0  0  0  0  0  0
    3.1879    2.4946    1.4757 C   0  0  0  0  0  0  0  0  0  0  0  0
    2.4527    1.7497    2.4089 C   0  0  0  0  0  0  0  0  0  0  0  0
    3.1136    0.9757    3.4176 N   0  0  0  0  0  0  0  0  0  0  0  0
    4.5121    0.0232    3.0409 S   0  0  0  0  0  0  0  0  0  0  0  0
    5.7394    0.8782    3.1911 O   0  0  0  0  0  0  0  0  0  0  0  0
    4.6091   -1.1334    3.9956 O   0  0  0  0  0  0  0  0  0  0  0  0
    4.3720   -0.6037    1.3865 C   0  0  0  0  0  0  0  0  0  0  0  0
    5.3816   -0.2840    0.4650 C   0  0  0  0  0  0  0  0  0  0  0  0
    5.2979   -0.7037   -0.8616 C   0  0  0  0  0  0  0  0  0  0  0  0
    4.2052   -1.4501   -1.2954 C   0  0  0  0  0  0  0  0  0  0  0  0
    3.1824   -1.7899   -0.4003 C   0  0  0  0  0  0  0  0  0  0  0  0
    2.0881   -2.5481   -0.8452 C   0  0  0  0  0  0  0  0  0  0  0  0
    1.0680   -2.8960    0.0391 C   0  0  0  0  0  0  0  0  0  0  0  0
    1.1217   -2.4821    1.3684 C   0  0  0  0  0  0  0  0  0  0  0  0
    2.2056   -1.7317    1.8296 C   0  0  0  0  0  0  0  0  0  0  0  0
    3.2549   -1.3702    0.9565 C   0  0  0  0  0  0  0  0  0  0  0  0
    1.0545    1.7296    2.3272 C   0  0  0  0  0  0  0  0  0  0  0  0
   -3.4323   -0.1372    3.2482 H   0  0  0  0  0  0  0  0  0  0  0  0
   -3.1529   -3.4975    0.3529 H   0  0  0  0  0  0  0  0  0  0  0  0
   -2.1092   -3.6026   -1.0587 H   0  0  0  0  0  0  0  0  0  0  0  0
   -4.8502   -2.1257   -1.0188 H   0  0  0  0  0  0  0  0  0  0  0  0
   -4.6450   -3.8514   -1.4135 H   0  0  0  0  0  0  0  0  0  0  0  0
   -4.7901   -2.7801   -3.4950 H   0  0  0  0  0  0  0  0  0  0  0  0
   -3.0779   -3.2227   -3.3367 H   0  0  0  0  0  0  0  0  0  0  0  0
   -4.0897   -0.7190   -4.0793 H   0  0  0  0  0  0  0  0  0  0  0  0
   -3.8548   -0.4171   -2.3478 H   0  0  0  0  0  0  0  0  0  0  0  0
   -1.7597   -1.2979   -4.4447 H   0  0  0  0  0  0  0  0  0  0  0  0
   -1.8789    0.2826   -3.6159 H   0  0  0  0  0  0  0  0  0  0  0  0
   -0.0476   -0.9407   -2.6266 H   0  0  0  0  0  0  0  0  0  0  0  0
   -0.9753   -2.4122   -2.4491 H   0  0  0  0  0  0  0  0  0  0  0  0
   -1.4967    2.4030    2.2589 H   0  0  0  0  0  0  0  0  0  0  0  0
   -1.6618    3.4045   -0.7511 H   0  0  0  0  0  0  0  0  0  0  0  0
   -1.6865    4.7880    2.0860 H   0  0  0  0  0  0  0  0  0  0  0  0
   -1.9830    5.5880    0.3366 H   0  0  0  0  0  0  0  0  0  0  0  0
   -3.5868    3.3188    1.7309 H   0  0  0  0  0  0  0  0  0  0  0  0
   -3.8759    4.1190   -0.0179 H   0  0  0  0  0  0  0  0  0  0  0  0
    0.6667    3.6989   -0.4363 H   0  0  0  0  0  0  0  0  0  0  0  0
    3.1049    3.7665   -0.2550 H   0  0  0  0  0  0  0  0  0  0  0  0
    4.2680    2.5308    1.5278 H   0  0  0  0  0  0  0  0  0  0  0  0
    2.5994    0.7440    4.2969 H   0  0  0  0  0  0  0  0  0  0  0  0
    6.2382    0.3034    0.7680 H   0  0  0  0  0  0  0  0  0  0  0  0
    6.0840   -0.4446   -1.5592 H   0  0  0  0  0  0  0  0  0  0  0  0
    4.1602   -1.7638   -2.3317 H   0  0  0  0  0  0  0  0  0  0  0  0
    2.0233   -2.8742   -1.8766 H   0  0  0  0  0  0  0  0  0  0  0  0
    0.2330   -3.4889   -0.3076 H   0  0  0  0  0  0  0  0  0  0  0  0
    0.3225   -2.7502    2.0475 H   0  0  0  0  0  0  0  0  0  0  0  0
    2.2089   -1.4504    2.8716 H   0  0  0  0  0  0  0  0  0  0  0  0
    0.4907    1.1372    3.0384 H   0  0  0  0  0  0  0  0  0  0  0  0
  1  2  1  0
  2  3  1  0
  3  4  1  0
  4  5  1  0
  5  6  1  0
  6  7  1  0
  7  8  1  0
  8  9  1  0
  9 10  1  0
 10 11  1  0
 11 12  1  0
 12 13  2  0
 12 14  1  0
 14 15  1  0
 15 16  1  0
 16 17  1  0
 17 18  1  0
 15 19  1  0
 19 20  2  0
 20 21  1  0
 21 22  2  0
 22 23  1  0
 23 24  1  0
 24 25  1  0
 25 26  2  0
 25 27  2  0
 25 28  1  0
 28 29  2  0
 29 30  1  0
 30 31  2  0
 31 32  1  0
 32 33  2  0
 33 34  1  0
 34 35  2  0
 35 36  1  0
 36 37  2  0
 23 38  2  0
 11  4  2  0
 14  2  2  0
 18 16  1  0
 37 28  1  0
 37 32  1  0
 38 19  1  0
  1 39  1  0
  5 40  1  0
  5 41  1  0
  6 42  1  0
  6 43  1  0
  7 44  1  0
  7 45  1  0
  8 46  1  0
  8 47  1  0
  9 48  1  0
  9 49  1  0
 10 50  1  0
 10 51  1  0
 15 52  1  0
 16 53  1  0
 17 54  1  0
 17 55  1  0
 18 56  1  0
 18 57  1  0
 20 58  1  0
 21 59  1  0
 22 60  1  0
 24 61  1  0
 29 62  1  0
 30 63  1  0
 31 64  1  0
 33 65  1  0
 34 66  1  0
 35 67  1  0
 36 68  1  0
 38 69  1  0
M  END
$$$$
