
     RDKit          3D

 73 74  0  0  0  0  0  0  0  0999 V2000
   -6.3518   -0.2904   -0.9431 C   0  0  0  0  0  0  0  0  0  0  0  0
   -5.1896   -1.1072   -0.4817 C   0  0  0  0  0  0  0  0  0  0  0  0
   -5.0748   -1.3920    0.7414 O   0  0  0  0  0  0  0  0  0  0  0  0
   -4.2276   -1.5853   -1.4331 N   0  0  0  0  0  0  0  0  0  0  0  0
   -3.0553   -2.3700   -1.0261 C   0  0  1  0  0  0  0  0  0  0  0  0
   -2.3301   -2.9898   -2.2396 C   0  0  0  0  0  0  0  0  0  0  0  0
   -1.7749   -1.9687   -3.1965 C   0  0  0  0  0  0  0  0  0  0  0  0
   -2.4920   -1.6144   -4.3793 N   0  0  0  0  0  0  0  0  0  0  0  0
   -0.6670   -1.4196   -2.9543 O   0  0  0  0  0  0  0  0  0  0  0  0
   -2.1169   -1.5305   -0.1983 C   0  0  0  0  0  0  0  0  0  0  0  0
   -1.9421   -0.3157   -0.4911 O   0  0  0  0  0  0  0  0  0  0  0  0
   -1.3954   -2.1257    0.8906 N   0  0  0  0  0  0  0  0  0  0  0  0
   -0.5019   -1.3603    1.7671 C   0  0  1  0  0  0  0  0  0  0  0  0
   -0.8443   -1.6598    3.2388 C   0  0  0  0  0  0  0  0  0  0  0  0
   -2.6010   -1.3146    3.6281 S   0  0  0  0  0  0  0  0  0  0  0  0
   -2.4277    0.4726    3.6484 C   0  0  0  0  0  0  0  0  0  0  0  0
   -1.9396    1.1197    4.7911 C   0  0  0  0  0  0  0  0  0  0  0  0
   -1.8057    2.5118    4.8041 C   0  0  0  0  0  0  0  0  0  0  0  0
   -2.1685    3.2606    3.6799 C   0  0  0  0  0  0  0  0  0  0  0  0
   -2.6715    2.6181    2.5443 C   0  0  0  0  0  0  0  0  0  0  0  0
   -2.8069    1.2265    2.5303 C   0  0  0  0  0  0  0  0  0  0  0  0
    0.9728   -1.7092    1.4615 C   0  0  2  0  0  0  0  0  0  0  0  0
    1.8062   -0.9320    2.2860 O   0  0  0  0  0  0  0  0  0  0  0  0
    1.3087   -1.4481   -0.0234 C   0  0  0  0  0  0  0  0  0  0  0  0
    2.7831   -1.6286   -0.3166 C   0  0  0  0  0  0  0  0  0  0  0  0
    3.2858   -2.9388   -0.4118 C   0  0  0  0  0  0  0  0  0  0  0  0
    4.6280   -3.1667   -0.7179 C   0  0  0  0  0  0  0  0  0  0  0  0
    5.4875   -2.0914   -0.9351 C   0  0  0  0  0  0  0  0  0  0  0  0
    5.0103   -0.7834   -0.8392 C   0  0  0  0  0  0  0  0  0  0  0  0
    3.6644   -0.5325   -0.5209 C   0  0  0  0  0  0  0  0  0  0  0  0
    3.2195    0.8744   -0.4096 C   0  0  0  0  0  0  0  0  0  0  0  0
    2.5731    1.2399    0.6079 O   0  0  0  0  0  0  0  0  0  0  0  0
    3.5418    1.8164   -1.4501 N   0  0  0  0  0  0  0  0  0  0  0  0
    3.1315    3.2345   -1.4630 C   0  0  0  0  0  0  0  0  0  0  0  0
    3.6489    3.8947   -2.7577 C   0  0  0  0  0  0  0  0  0  0  0  0
    1.5938    3.3454   -1.4388 C   0  0  0  0  0  0  0  0  0  0  0  0
    3.7422    3.9771   -0.2585 C   0  0  0  0  0  0  0  0  0  0  0  0
   -6.8869    0.1518   -0.0759 H   0  0  0  0  0  0  0  0  0  0  0  0
   -5.9945    0.5309   -1.5989 H   0  0  0  0  0  0  0  0  0  0  0  0
   -7.0534   -0.9346   -1.5127 H   0  0  0  0  0  0  0  0  0  0  0  0
   -4.3987   -1.3842   -2.4434 H   0  0  0  0  0  0  0  0  0  0  0  0
   -3.4133   -3.2169   -0.3995 H   0  0  0  0  0  0  0  0  0  0  0  0
   -3.0357   -3.6570   -2.7802 H   0  0  0  0  0  0  0  0  0  0  0  0
   -1.4971   -3.6317   -1.8774 H   0  0  0  0  0  0  0  0  0  0  0  0
   -2.1077   -0.8955   -5.0317 H   0  0  0  0  0  0  0  0  0  0  0  0
   -3.3992   -2.0749   -4.6140 H   0  0  0  0  0  0  0  0  0  0  0  0
   -1.4581   -3.1604    1.0268 H   0  0  0  0  0  0  0  0  0  0  0  0
   -0.6356   -0.2698    1.6011 H   0  0  0  0  0  0  0  0  0  0  0  0
   -0.1953   -1.0667    3.9180 H   0  0  0  0  0  0  0  0  0  0  0  0
   -0.6566   -2.7341    3.4509 H   0  0  0  0  0  0  0  0  0  0  0  0
   -1.6563    0.5453    5.6639 H   0  0  0  0  0  0  0  0  0  0  0  0
   -1.4211    3.0100    5.6846 H   0  0  0  0  0  0  0  0  0  0  0  0
   -2.0642    4.3378    3.6905 H   0  0  0  0  0  0  0  0  0  0  0  0
   -2.9590    3.1981    1.6770 H   0  0  0  0  0  0  0  0  0  0  0  0
   -3.2074    0.7367    1.6530 H   0  0  0  0  0  0  0  0  0  0  0  0
    1.1259   -2.7948    1.6742 H   0  0  0  0  0  0  0  0  0  0  0  0
    2.6276   -1.4628    2.4569 H   0  0  0  0  0  0  0  0  0  0  0  0
    0.9560   -0.4413   -0.3286 H   0  0  0  0  0  0  0  0  0  0  0  0
    0.7422   -2.1672   -0.6540 H   0  0  0  0  0  0  0  0  0  0  0  0
    2.6314   -3.7880   -0.2567 H   0  0  0  0  0  0  0  0  0  0  0  0
    5.0012   -4.1801   -0.7910 H   0  0  0  0  0  0  0  0  0  0  0  0
    6.5278   -2.2711   -1.1737 H   0  0  0  0  0  0  0  0  0  0  0  0
    5.6999    0.0374   -0.9958 H   0  0  0  0  0  0  0  0  0  0  0  0
    4.0726    1.4459   -2.2718 H   0  0  0  0  0  0  0  0  0  0  0  0
    4.7572    3.8287   -2.8107 H   0  0  0  0  0  0  0  0  0  0  0  0
    3.2272    3.3828   -3.6497 H   0  0  0  0  0  0  0  0  0  0  0  0
    3.3598    4.9673   -2.8011 H   0  0  0  0  0  0  0  0  0  0  0  0
    1.1524    2.7467   -2.2644 H   0  0  0  0  0  0  0  0  0  0  0  0
    1.2761    4.4035   -1.5613 H   0  0  0  0  0  0  0  0  0  0  0  0
    1.1723    2.9803   -0.4802 H   0  0  0  0  0  0  0  0  0  0  0  0
    3.3261    3.6095    0.7013 H   0  0  0  0  0  0  0  0  0  0  0  0
    3.5271    5.0658   -0.3205 H   0  0  0  0  0  0  0  0  0  0  0  0
    4.8442    3.8358   -0.2386 H   0  0  0  0  0  0  0  0  0  0  0  0
  1  2  1  0
  2  3  2  0
  2  4  1  0
  4  5  1  0
  5  6  1  0
  6  7  1  0
  7  8  1  0
  7  9  2  0
  5 10  1  0
 10 11  2  0
 10 12  1  0
 12 13  1  0
 13 14  1  0
 14 15  1  0
 15 16  1  0
 16 17  2  0
 17 18  1  0
 18 19  2  0
 19 20  1  0
 20 21  2  0
 13 22  1  0
 22 23  1  0
 22 24  1  0
 24 25  1  0
 25 26  2  0
 26 27  1  0
 27 28  2  0
 28 29  1  0
 29 30  2  0
 30 31  1  0
 31 32  2  0
 31 33  1  0
 33 34  1  0
 34 35  1  0
 34 36  1  0
 34 37  1  0
 21 16  1  0
 30 25  1  0
  1 38  1  0
  1 39  1  0
  1 40  1  0
  4 41  1  0
  5 42  1  1
  6 43  1  0
  6 44  1  0
  8 45  1  0
  8 46  1  0
 12 47  1  0
 13 48  1  1
 14 49  1  0
 14 50  1  0
 17 51  1  0
 18 52  1  0
 19 53  1  0
 20 54  1  0
 21 55  1  0
 22 56  1  1
 23 57  1  0
 24 58  1  0
 24 59  1  0
 26 60  1  0
 27 61  1  0
 28 62  1  0
 29 63  1  0
 33 64  1  0
 35 65  1  0
 35 66  1  0
 35 67  1  0
 36 68  1  0
 36 69  1  0
 36 70  1  0
 37 71  1  0
 37 72  1  0
 37 73  1  0
M  END
$$$$
