
     RDKit          3D

 71 74  0  0  0  0  0  0  0  0999 V2000
   -0.5716    0.4548    1.2899 C   0  0  0  0  0  0  0  0  0  0  0  0
    0.9526    0.2513    1.2396 C   0  0  0  0  0  0  0  0  0  0  0  0
    1.6387    1.4467    1.9333 C   0  0  0  0  0  0  0  0  0  0  0  0
    1.5179   -0.0807   -0.2021 C   0  0  0  0  0  0  0  0  0  0  0  0
    3.0617   -0.2945   -0.1747 C   0  0  0  0  0  0  0  0  0  0  0  0
    3.5351   -1.3881    0.7987 C   0  0  0  0  0  0  0  0  0  0  0  0
    4.9914   -1.6642    0.6019 C   0  0  0  0  0  0  0  0  0  0  0  0
    5.9705   -0.9442    1.2034 N   0  0  0  0  0  0  0  0  0  0  0  0
    7.1971   -1.3642    0.8019 C   0  0  0  0  0  0  0  0  0  0  0  0
    8.4026   -0.8210    1.2493 C   0  0  0  0  0  0  0  0  0  0  0  0
    9.6067   -1.3457    0.7481 C   0  0  0  0  0  0  0  0  0  0  0  0
    9.5919   -2.3983   -0.1891 C   0  0  0  0  0  0  0  0  0  0  0  0
    8.3731   -2.9354   -0.6335 C   0  0  0  0  0  0  0  0  0  0  0  0
    7.1949   -2.3992   -0.1203 C   0  0  0  0  0  0  0  0  0  0  0  0
    5.6095   -2.8256   -0.4665 S   0  0  0  0  0  0  0  0  0  0  0  0
    1.2201    1.0428   -1.2433 C   0  0  0  0  0  0  0  0  0  0  0  0
   -0.1553    0.9409   -1.8313 C   0  0  0  0  0  0  0  0  0  0  0  0
   -0.6680    1.9592   -2.3620 O   0  0  0  0  0  0  0  0  0  0  0  0
   -0.8431   -0.3584   -1.9019 C   0  0  0  0  0  0  0  0  0  0  0  0
   -2.4529   -0.4996   -2.7127 S   0  0  0  0  0  0  0  0  0  0  0  0
   -3.4041   -0.2450   -1.1939 C   0  0  0  0  0  0  0  0  0  0  0  0
   -3.4771   -1.3660   -0.3540 C   0  0  0  0  0  0  0  0  0  0  0  0
   -3.9551   -1.2761    0.9557 C   0  0  0  0  0  0  0  0  0  0  0  0
   -3.9418   -2.5060    1.8262 C   0  0  0  0  0  0  0  0  0  0  0  0
   -4.3492   -0.0211    1.4538 C   0  0  0  0  0  0  0  0  0  0  0  0
   -4.8112    0.1588    2.8788 C   0  0  0  0  0  0  0  0  0  0  0  0
   -6.1558   -0.2169    2.9828 O   0  0  0  0  0  0  0  0  0  0  0  0
   -4.3960    1.0760    0.5833 C   0  0  0  0  0  0  0  0  0  0  0  0
   -3.9995    0.9903   -0.7748 C   0  0  0  0  0  0  0  0  0  0  0  0
   -4.3308    2.2185   -1.6757 C   0  0  0  0  0  0  0  0  0  0  0  0
   -4.0431    2.0350   -3.1828 C   0  0  0  0  0  0  0  0  0  0  0  0
   -3.5399    3.4510   -1.1827 C   0  0  0  0  0  0  0  0  0  0  0  0
   -5.8485    2.5271   -1.5729 C   0  0  0  0  0  0  0  0  0  0  0  0
   -0.2376   -1.4392   -1.3941 C   0  0  0  0  0  0  0  0  0  0  0  0
   -0.7783   -2.7053   -1.5921 O   0  0  0  0  0  0  0  0  0  0  0  0
    0.9511   -1.3206   -0.6586 O   0  0  0  0  0  0  0  0  0  0  0  0
   -0.9027    0.6073    2.3395 H   0  0  0  0  0  0  0  0  0  0  0  0
   -1.0985   -0.4460    0.9235 H   0  0  0  0  0  0  0  0  0  0  0  0
   -0.8835    1.3447    0.7056 H   0  0  0  0  0  0  0  0  0  0  0  0
    1.1411   -0.6367    1.8805 H   0  0  0  0  0  0  0  0  0  0  0  0
    1.2388    1.5645    2.9632 H   0  0  0  0  0  0  0  0  0  0  0  0
    2.7300    1.2894    2.0384 H   0  0  0  0  0  0  0  0  0  0  0  0
    1.4545    2.3959    1.3915 H   0  0  0  0  0  0  0  0  0  0  0  0
    3.5866    0.6590    0.0500 H   0  0  0  0  0  0  0  0  0  0  0  0
    3.3864   -0.5940   -1.1973 H   0  0  0  0  0  0  0  0  0  0  0  0
    2.9639   -2.3263    0.6330 H   0  0  0  0  0  0  0  0  0  0  0  0
    3.3835   -1.0678    1.8499 H   0  0  0  0  0  0  0  0  0  0  0  0
    8.4126   -0.0115    1.9679 H   0  0  0  0  0  0  0  0  0  0  0  0
   10.5514   -0.9378    1.0836 H   0  0  0  0  0  0  0  0  0  0  0  0
   10.5247   -2.7941   -0.5692 H   0  0  0  0  0  0  0  0  0  0  0  0
    8.3512   -3.7422   -1.3544 H   0  0  0  0  0  0  0  0  0  0  0  0
    1.9238    0.9676   -2.1008 H   0  0  0  0  0  0  0  0  0  0  0  0
    1.3679    2.0502   -0.8062 H   0  0  0  0  0  0  0  0  0  0  0  0
   -3.1121   -2.3187   -0.7132 H   0  0  0  0  0  0  0  0  0  0  0  0
   -4.8947   -2.5935    2.3885 H   0  0  0  0  0  0  0  0  0  0  0  0
   -3.8274   -3.4309    1.2216 H   0  0  0  0  0  0  0  0  0  0  0  0
   -3.0940   -2.4461    2.5405 H   0  0  0  0  0  0  0  0  0  0  0  0
   -4.1877   -0.4517    3.5684 H   0  0  0  0  0  0  0  0  0  0  0  0
   -4.6947    1.2205    3.1932 H   0  0  0  0  0  0  0  0  0  0  0  0
   -6.4024   -0.0973    3.9366 H   0  0  0  0  0  0  0  0  0  0  0  0
   -4.7725    2.0088    0.9788 H   0  0  0  0  0  0  0  0  0  0  0  0
   -4.4411    2.8920   -3.7690 H   0  0  0  0  0  0  0  0  0  0  0  0
   -2.9579    2.0202   -3.3941 H   0  0  0  0  0  0  0  0  0  0  0  0
   -4.5365    1.1189   -3.5719 H   0  0  0  0  0  0  0  0  0  0  0  0
   -3.8625    3.7667   -0.1689 H   0  0  0  0  0  0  0  0  0  0  0  0
   -2.4557    3.2277   -1.1369 H   0  0  0  0  0  0  0  0  0  0  0  0
   -3.6922    4.3177   -1.8621 H   0  0  0  0  0  0  0  0  0  0  0  0
   -6.1523    2.8316   -0.5510 H   0  0  0  0  0  0  0  0  0  0  0  0
   -6.4434    1.6332   -1.8609 H   0  0  0  0  0  0  0  0  0  0  0  0
   -6.1343    3.3662   -2.2442 H   0  0  0  0  0  0  0  0  0  0  0  0
   -0.3261   -3.5247   -1.2057 H   0  0  0  0  0  0  0  0  0  0  0  0
  1  2  1  0
  2  3  1  0
  2  4  1  0
  4  5  1  0
  5  6  1  0
  6  7  1  0
  7  8  2  0
  8  9  1  0
  9 10  2  0
 10 11  1  0
 11 12  2  0
 12 13  1  0
 13 14  2  0
 14 15  1  0
  4 16  1  0
 16 17  1  0
 17 18  2  0
 17 19  1  0
 19 20  1  0
 20 21  1  0
 21 22  2  0
 22 23  1  0
 23 24  1  0
 23 25  2  0
 25 26  1  0
 26 27  1  0
 25 28  1  0
 28 29  2  0
 29 30  1  0
 30 31  1  0
 30 32  1  0
 30 33  1  0
 19 34  2  0
 34 35  1  0
 34 36  1  0
 14  9  1  0
 15  7  1  0
 29 21  1  0
 36  4  1  0
  1 37  1  0
  1 38  1  0
  1 39  1  0
  2 40  1  0
  3 41  1  0
  3 42  1  0
  3 43  1  0
  5 44  1  0
  5 45  1  0
  6 46  1  0
  6 47  1  0
 10 48  1  0
 11 49  1  0
 12 50  1  0
 13 51  1  0
 16 52  1  0
 16 53  1  0
 22 54  1  0
 24 55  1  0
 24 56  1  0
 24 57  1  0
 26 58  1  0
 26 59  1  0
 27 60  1  0
 28 61  1  0
 31 62  1  0
 31 63  1  0
 31 64  1  0
 32 65  1  0
 32 66  1  0
 32 67  1  0
 33 68  1  0
 33 69  1  0
 33 70  1  0
 35 71  1  0
M  END
$$$$
