
     RDKit          3D

 72 75  0  0  0  0  0  0  0  0999 V2000
   -1.6754   -4.8526   -2.0455 C   0  0  0  0  0  0  0  0  0  0  0  0
   -1.6998   -3.6148   -1.1533 C   0  0  0  0  0  0  0  0  0  0  0  0
   -1.7029   -2.3240   -1.9935 C   0  0  0  0  0  0  0  0  0  0  0  0
   -1.8629   -1.0206   -1.1623 C   0  0  0  0  0  0  0  0  0  0  0  0
   -3.3280   -0.5156   -1.1409 C   0  0  0  0  0  0  0  0  0  0  0  0
   -4.3130   -1.4722   -0.4537 C   0  0  0  0  0  0  0  0  0  0  0  0
   -5.6530   -0.8093   -0.2779 C   0  0  0  0  0  0  0  0  0  0  0  0
   -6.6203   -0.8831   -1.2944 C   0  0  0  0  0  0  0  0  0  0  0  0
   -7.8509   -0.2364   -1.1433 C   0  0  0  0  0  0  0  0  0  0  0  0
   -8.1200    0.4956    0.0166 C   0  0  0  0  0  0  0  0  0  0  0  0
   -7.1572    0.5858    1.0256 C   0  0  0  0  0  0  0  0  0  0  0  0
   -5.9254   -0.0595    0.8788 C   0  0  0  0  0  0  0  0  0  0  0  0
   -1.4078   -1.2218    0.1821 O   0  0  0  0  0  0  0  0  0  0  0  0
   -0.9356   -0.1780    0.9895 C   0  0  0  0  0  0  0  0  0  0  0  0
   -0.8678   -0.3812    2.3651 O   0  0  0  0  0  0  0  0  0  0  0  0
   -0.5362    0.9844    0.4380 C   0  0  0  0  0  0  0  0  0  0  0  0
   -0.0210    2.1365    1.2961 C   0  0  0  0  0  0  0  0  0  0  0  0
   -0.7948    3.4472    1.0108 C   0  0  0  0  0  0  0  0  0  0  0  0
   -0.4379    4.5612    1.9966 C   0  0  0  0  0  0  0  0  0  0  0  0
    1.4948    2.2350    1.1835 C   0  0  0  0  0  0  0  0  0  0  0  0
    2.1353    3.0690    0.2459 C   0  0  0  0  0  0  0  0  0  0  0  0
    3.5272    3.0780    0.1413 C   0  0  0  0  0  0  0  0  0  0  0  0
    4.3001    2.2458    0.9512 C   0  0  0  0  0  0  0  0  0  0  0  0
    3.6840    1.3875    1.8770 C   0  0  0  0  0  0  0  0  0  0  0  0
    4.4509    0.4970    2.7050 N   0  0  0  0  0  0  0  0  0  0  0  0
    6.0426   -0.0528    2.2865 S   0  0  0  0  0  0  0  0  0  0  0  0
    7.0278    1.0545    2.5374 O   0  0  0  0  0  0  0  0  0  0  0  0
    6.4027   -1.2332    3.1435 O   0  0  0  0  0  0  0  0  0  0  0  0
    6.0751   -0.5491    0.5970 C   0  0  0  0  0  0  0  0  0  0  0  0
    4.9982   -1.2694    0.0619 C   0  0  0  0  0  0  0  0  0  0  0  0
    5.0044   -1.6491   -1.2836 C   0  0  0  0  0  0  0  0  0  0  0  0
    6.0908   -1.3145   -2.1019 C   0  0  0  0  0  0  0  0  0  0  0  0
    6.0969   -1.7037   -3.4877 C   0  0  0  0  0  0  0  0  0  0  0  0
    6.1018   -2.0166   -4.6018 N   0  0  0  0  0  0  0  0  0  0  0  0
    7.1712   -0.6002   -1.5681 C   0  0  0  0  0  0  0  0  0  0  0  0
    7.1638   -0.2192   -0.2225 C   0  0  0  0  0  0  0  0  0  0  0  0
    2.2859    1.3963    1.9907 C   0  0  0  0  0  0  0  0  0  0  0  0
   -0.5251    1.0473   -1.0428 C   0  0  0  0  0  0  0  0  0  0  0  0
    0.0009    2.0131   -1.6534 O   0  0  0  0  0  0  0  0  0  0  0  0
   -1.0682   -0.0060   -1.7800 O   0  0  0  0  0  0  0  0  0  0  0  0
   -0.7725   -4.8446   -2.6926 H   0  0  0  0  0  0  0  0  0  0  0  0
   -2.5844   -4.8856   -2.6832 H   0  0  0  0  0  0  0  0  0  0  0  0
   -1.6520   -5.7658   -1.4142 H   0  0  0  0  0  0  0  0  0  0  0  0
   -2.5942   -3.6663   -0.5010 H   0  0  0  0  0  0  0  0  0  0  0  0
   -0.7982   -3.6321   -0.5029 H   0  0  0  0  0  0  0  0  0  0  0  0
   -2.4974   -2.3809   -2.7700 H   0  0  0  0  0  0  0  0  0  0  0  0
   -0.7338   -2.2854   -2.5393 H   0  0  0  0  0  0  0  0  0  0  0  0
   -3.3518    0.4616   -0.6089 H   0  0  0  0  0  0  0  0  0  0  0  0
   -3.6695   -0.3261   -2.1826 H   0  0  0  0  0  0  0  0  0  0  0  0
   -3.9200   -1.7804    0.5395 H   0  0  0  0  0  0  0  0  0  0  0  0
   -4.4384   -2.3884   -1.0692 H   0  0  0  0  0  0  0  0  0  0  0  0
   -6.4203   -1.4388   -2.2022 H   0  0  0  0  0  0  0  0  0  0  0  0
   -8.5946   -0.2997   -1.9271 H   0  0  0  0  0  0  0  0  0  0  0  0
   -9.0725    0.9968    0.1312 H   0  0  0  0  0  0  0  0  0  0  0  0
   -7.3639    1.1591    1.9201 H   0  0  0  0  0  0  0  0  0  0  0  0
   -5.1836    0.0270    1.6633 H   0  0  0  0  0  0  0  0  0  0  0  0
   -1.1630   -1.2605    2.7711 H   0  0  0  0  0  0  0  0  0  0  0  0
   -0.2477    1.9186    2.3633 H   0  0  0  0  0  0  0  0  0  0  0  0
   -1.8840    3.2435    1.1090 H   0  0  0  0  0  0  0  0  0  0  0  0
   -0.6323    3.8118   -0.0227 H   0  0  0  0  0  0  0  0  0  0  0  0
   -0.6424    4.2364    3.0389 H   0  0  0  0  0  0  0  0  0  0  0  0
   -1.0546    5.4588    1.7798 H   0  0  0  0  0  0  0  0  0  0  0  0
    0.6319    4.8413    1.9045 H   0  0  0  0  0  0  0  0  0  0  0  0
    1.5726    3.7190   -0.4071 H   0  0  0  0  0  0  0  0  0  0  0  0
    4.0093    3.7305   -0.5753 H   0  0  0  0  0  0  0  0  0  0  0  0
    5.3756    2.2801    0.8505 H   0  0  0  0  0  0  0  0  0  0  0  0
    3.9845    0.0272    3.5130 H   0  0  0  0  0  0  0  0  0  0  0  0
    4.1521   -1.5313    0.6846 H   0  0  0  0  0  0  0  0  0  0  0  0
    4.1633   -2.2014   -1.6852 H   0  0  0  0  0  0  0  0  0  0  0  0
    8.0171   -0.3369   -2.1916 H   0  0  0  0  0  0  0  0  0  0  0  0
    8.0041    0.3342    0.1763 H   0  0  0  0  0  0  0  0  0  0  0  0
    1.8097    0.7275    2.6976 H   0  0  0  0  0  0  0  0  0  0  0  0
  1  2  1  0
  2  3  1  0
  3  4  1  0
  4  5  1  0
  5  6  1  0
  6  7  1  0
  7  8  2  0
  8  9  1  0
  9 10  2  0
 10 11  1  0
 11 12  2  0
  4 13  1  0
 13 14  1  0
 14 15  1  0
 14 16  2  0
 16 17  1  0
 17 18  1  0
 18 19  1  0
 17 20  1  0
 20 21  2  0
 21 22  1  0
 22 23  2  0
 23 24  1  0
 24 25  1  0
 25 26  1  0
 26 27  2  0
 26 28  2  0
 26 29  1  0
 29 30  2  0
 30 31  1  0
 31 32  2  0
 32 33  1  0
 33 34  3  0
 32 35  1  0
 35 36  2  0
 24 37  2  0
 16 38  1  0
 38 39  2  0
 38 40  1  0
 12  7  1  0
 36 29  1  0
 37 20  1  0
 40  4  1  0
  1 41  1  0
  1 42  1  0
  1 43  1  0
  2 44  1  0
  2 45  1  0
  3 46  1  0
  3 47  1  0
  5 48  1  0
  5 49  1  0
  6 50  1  0
  6 51  1  0
  8 52  1  0
  9 53  1  0
 10 54  1  0
 11 55  1  0
 12 56  1  0
 15 57  1  0
 17 58  1  0
 18 59  1  0
 18 60  1  0
 19 61  1  0
 19 62  1  0
 19 63  1  0
 21 64  1  0
 22 65  1  0
 23 66  1  0
 25 67  1  0
 30 68  1  0
 31 69  1  0
 35 70  1  0
 36 71  1  0
 37 72  1  0
M  END
$$$$
