
     RDKit          3D

 80 83  0  0  0  0  0  0  0  0999 V2000
   -5.9881    5.4827    1.2973 C   0  0  0  0  0  0  0  0  0  0  0  0
   -5.8665    4.5913    0.1937 O   0  0  0  0  0  0  0  0  0  0  0  0
   -4.7443    3.7869   -0.0540 C   0  0  0  0  0  0  0  0  0  0  0  0
   -3.6120    3.7911    0.7834 C   0  0  0  0  0  0  0  0  0  0  0  0
   -2.5197    2.9684    0.4940 C   0  0  0  0  0  0  0  0  0  0  0  0
   -2.5408    2.1357   -0.6314 C   0  0  0  0  0  0  0  0  0  0  0  0
   -1.1779    1.0682   -0.9508 S   0  0  0  0  0  0  0  0  0  0  0  0
    0.0931    1.8538   -0.7853 O   0  0  0  0  0  0  0  0  0  0  0  0
   -1.2536    0.5483   -2.3602 O   0  0  0  0  0  0  0  0  0  0  0  0
   -1.2310   -0.2570    0.1863 N   0  0  0  0  0  0  0  0  0  0  0  0
   -2.3825   -1.1544   -0.0429 C   0  0  0  0  0  0  0  0  0  0  0  0
   -3.0741   -1.4935    1.2911 C   0  0  0  0  0  0  0  0  0  0  0  0
   -4.2198   -2.4866    1.0608 C   0  0  0  0  0  0  0  0  0  0  0  0
   -3.6045   -0.2276    1.9795 C   0  0  0  0  0  0  0  0  0  0  0  0
    0.0653   -0.9434    0.3907 C   0  0  0  0  0  0  0  0  0  0  0  0
    0.6893   -1.5834   -0.8831 C   0  0  1  0  0  0  0  0  0  0  0  0
    1.2643   -0.5733   -1.6718 O   0  0  0  0  0  0  0  0  0  0  0  0
    1.7910   -2.6326   -0.5419 C   0  0  2  0  0  0  0  0  0  0  0  0
    1.2481   -3.9510    0.0595 C   0  0  0  0  0  0  0  0  0  0  0  0
    0.2474   -4.6397   -0.8346 C   0  0  0  0  0  0  0  0  0  0  0  0
    0.6520   -5.1928   -2.0616 C   0  0  0  0  0  0  0  0  0  0  0  0
   -0.2819   -5.8143   -2.8963 C   0  0  0  0  0  0  0  0  0  0  0  0
   -1.6231   -5.8923   -2.5115 C   0  0  0  0  0  0  0  0  0  0  0  0
   -2.0318   -5.3532   -1.2889 C   0  0  0  0  0  0  0  0  0  0  0  0
   -1.1010   -4.7324   -0.4507 C   0  0  0  0  0  0  0  0  0  0  0  0
    2.7859   -2.0540    0.3691 N   0  0  0  0  0  0  0  0  0  0  0  0
    3.8501   -1.2091   -0.0812 C   0  0  0  0  0  0  0  0  0  0  0  0
    4.1300   -1.1330   -1.3092 O   0  0  0  0  0  0  0  0  0  0  0  0
    4.5598   -0.4515    0.8555 O   0  0  0  0  0  0  0  0  0  0  0  0
    5.5162    0.5439    0.4876 C   0  0  2  0  0  0  0  0  0  0  0  0
    6.2839    1.0283    1.6949 C   0  0  0  0  0  0  0  0  0  0  0  0
    6.7278    2.3378    1.4374 O   0  0  0  0  0  0  0  0  0  0  0  0
    5.8287    2.9183    0.5161 C   0  0  2  0  0  0  0  0  0  0  0  0
    5.1277    3.9672    1.1679 O   0  0  0  0  0  0  0  0  0  0  0  0
    4.1358    4.4951    0.3086 C   0  0  0  0  0  0  0  0  0  0  0  0
    2.9948    3.4845    0.0926 C   0  0  0  0  0  0  0  0  0  0  0  0
    3.4403    2.0550    0.4220 C   0  0  0  0  0  0  0  0  0  0  0  0
    4.8936    1.8215   -0.0410 C   0  0  2  0  0  0  0  0  0  0  0  0
   -3.6672    2.1276   -1.4646 C   0  0  0  0  0  0  0  0  0  0  0  0
   -4.7598    2.9504   -1.1765 C   0  0  0  0  0  0  0  0  0  0  0  0
   -6.9739    5.9887    1.2477 H   0  0  0  0  0  0  0  0  0  0  0  0
   -5.9253    4.9190    2.2521 H   0  0  0  0  0  0  0  0  0  0  0  0
   -5.1900    6.2537    1.2551 H   0  0  0  0  0  0  0  0  0  0  0  0
   -3.5680    4.4218    1.6607 H   0  0  0  0  0  0  0  0  0  0  0  0
   -1.6606    2.9728    1.1532 H   0  0  0  0  0  0  0  0  0  0  0  0
   -2.0726   -2.0923   -0.5428 H   0  0  0  0  0  0  0  0  0  0  0  0
   -3.1343   -0.6825   -0.7134 H   0  0  0  0  0  0  0  0  0  0  0  0
   -2.3360   -1.9769    1.9677 H   0  0  0  0  0  0  0  0  0  0  0  0
   -4.6914   -2.7594    2.0290 H   0  0  0  0  0  0  0  0  0  0  0  0
   -4.9938   -2.0455    0.3963 H   0  0  0  0  0  0  0  0  0  0  0  0
   -3.8353   -3.4170    0.5930 H   0  0  0  0  0  0  0  0  0  0  0  0
   -4.3225    0.3068    1.3206 H   0  0  0  0  0  0  0  0  0  0  0  0
   -2.7670    0.4577    2.2283 H   0  0  0  0  0  0  0  0  0  0  0  0
   -4.1178   -0.4927    2.9283 H   0  0  0  0  0  0  0  0  0  0  0  0
    0.7867   -0.2165    0.8225 H   0  0  0  0  0  0  0  0  0  0  0  0
   -0.0748   -1.7153    1.1732 H   0  0  0  0  0  0  0  0  0  0  0  0
   -0.1041   -2.0841   -1.4770 H   0  0  0  0  0  0  0  0  0  0  0  0
    1.3646   -0.9393   -2.5895 H   0  0  0  0  0  0  0  0  0  0  0  0
    2.3019   -2.9104   -1.4907 H   0  0  0  0  0  0  0  0  0  0  0  0
    0.8134   -3.7719    1.0654 H   0  0  0  0  0  0  0  0  0  0  0  0
    2.1031   -4.6442    0.2179 H   0  0  0  0  0  0  0  0  0  0  0  0
    1.6882   -5.1414   -2.3714 H   0  0  0  0  0  0  0  0  0  0  0  0
    0.0343   -6.2355   -3.8419 H   0  0  0  0  0  0  0  0  0  0  0  0
   -2.3449   -6.3727   -3.1592 H   0  0  0  0  0  0  0  0  0  0  0  0
   -3.0702   -5.4169   -0.9904 H   0  0  0  0  0  0  0  0  0  0  0  0
   -1.4321   -4.3206    0.4944 H   0  0  0  0  0  0  0  0  0  0  0  0
    2.6236   -2.1157    1.3999 H   0  0  0  0  0  0  0  0  0  0  0  0
    6.2374    0.1323   -0.2551 H   0  0  0  0  0  0  0  0  0  0  0  0
    5.6337    1.0362    2.5982 H   0  0  0  0  0  0  0  0  0  0  0  0
    7.1554    0.3680    1.8903 H   0  0  0  0  0  0  0  0  0  0  0  0
    6.4358    3.3411   -0.3168 H   0  0  0  0  0  0  0  0  0  0  0  0
    4.5767    4.7994   -0.6689 H   0  0  0  0  0  0  0  0  0  0  0  0
    3.7221    5.4169    0.7696 H   0  0  0  0  0  0  0  0  0  0  0  0
    2.1270    3.7479    0.7360 H   0  0  0  0  0  0  0  0  0  0  0  0
    2.6585    3.5348   -0.9661 H   0  0  0  0  0  0  0  0  0  0  0  0
    2.7556    1.3378   -0.0772 H   0  0  0  0  0  0  0  0  0  0  0  0
    3.3641    1.8989    1.5214 H   0  0  0  0  0  0  0  0  0  0  0  0
    4.9197    1.8211   -1.1542 H   0  0  0  0  0  0  0  0  0  0  0  0
   -3.7068    1.4799   -2.3306 H   0  0  0  0  0  0  0  0  0  0  0  0
   -5.6257    2.9349   -1.8262 H   0  0  0  0  0  0  0  0  0  0  0  0
  1  2  1  0
  2  3  1  0
  3  4  2  0
  4  5  1  0
  5  6  2  0
  6  7  1  0
  7  8  2  0
  7  9  2  0
  7 10  1  0
 10 11  1  0
 11 12  1  0
 12 13  1  0
 12 14  1  0
 10 15  1  0
 15 16  1  0
 16 17  1  0
 16 18  1  0
 18 19  1  0
 19 20  1  0
 20 21  2  0
 21 22  1  0
 22 23  2  0
 23 24  1  0
 24 25  2  0
 18 26  1  0
 26 27  1  0
 27 28  2  0
 27 29  1  0
 29 30  1  0
 30 31  1  0
 31 32  1  0
 32 33  1  0
 33 34  1  0
 34 35  1  0
 35 36  1  0
 36 37  1  0
 37 38  1  0
  6 39  1  0
 39 40  2  0
 25 20  1  0
 38 30  1  0
 38 33  1  0
 40  3  1  0
  1 41  1  0
  1 42  1  0
  1 43  1  0
  4 44  1  0
  5 45  1  0
 11 46  1  0
 11 47  1  0
 12 48  1  0
 13 49  1  0
 13 50  1  0
 13 51  1  0
 14 52  1  0
 14 53  1  0
 14 54  1  0
 15 55  1  0
 15 56  1  0
 16 57  1  6
 17 58  1  0
 18 59  1  6
 19 60  1  0
 19 61  1  0
 21 62  1  0
 22 63  1  0
 23 64  1  0
 24 65  1  0
 25 66  1  0
 26 67  1  0
 30 68  1  6
 31 69  1  0
 31 70  1  0
 33 71  1  6
 35 72  1  0
 35 73  1  0
 36 74  1  0
 36 75  1  0
 37 76  1  0
 37 77  1  0
 38 78  1  6
 39 79  1  0
 40 80  1  0
M  END
$$$$
