
     RDKit          3D

 79 80  0  0  0  0  0  0  0  0999 V2000
    8.9497    0.1436   -1.5357 C   0  0  0  0  0  0  0  0  0  0  0  0
    8.0504   -0.3306   -0.3837 C   0  0  0  0  0  0  0  0  0  0  0  0
    7.3410   -1.6367   -0.7788 C   0  0  0  0  0  0  0  0  0  0  0  0
    7.0839    0.8006    0.0774 C   0  0  2  0  0  0  0  0  0  0  0  0
    6.4346    0.5055    1.4393 C   0  0  0  0  0  0  0  0  0  0  0  0
    6.0549    1.1738   -0.9705 C   0  0  0  0  0  0  0  0  0  0  0  0
    6.2859    2.1657   -1.7144 O   0  0  0  0  0  0  0  0  0  0  0  0
    4.8511    0.4038   -1.1453 N   0  0  0  0  0  0  0  0  0  0  0  0
    3.8067    0.7493   -2.0706 C   0  0  0  0  0  0  0  0  0  0  0  0
    3.8607    1.8262   -2.7252 O   0  0  0  0  0  0  0  0  0  0  0  0
    2.6001   -0.1470   -2.2098 C   0  0  2  0  0  0  0  0  0  0  0  0
    2.1829   -0.1992   -3.5531 O   0  0  0  0  0  0  0  0  0  0  0  0
    1.4585    0.3181   -1.2733 C   0  0  2  0  0  0  0  0  0  0  0  0
    1.9149    0.2817    0.0576 O   0  0  0  0  0  0  0  0  0  0  0  0
    0.1968   -0.5722   -1.4185 C   0  0  1  0  0  0  0  0  0  0  0  0
    0.4904   -1.8846   -1.0033 O   0  0  0  0  0  0  0  0  0  0  0  0
   -0.9820   -0.0314   -0.5836 C   0  0  1  0  0  0  0  0  0  0  0  0
   -1.2798    1.3092   -0.9844 O   0  0  0  0  0  0  0  0  0  0  0  0
   -2.1273    2.1944   -0.2982 C   0  0  0  0  0  0  0  0  0  0  0  0
   -2.7740    1.8514    0.9035 C   0  0  0  0  0  0  0  0  0  0  0  0
   -3.6085    2.7722    1.5434 C   0  0  0  0  0  0  0  0  0  0  0  0
   -3.8208    4.0498    0.9958 C   0  0  0  0  0  0  0  0  0  0  0  0
   -4.7065    5.0161    1.6952 C   0  0  0  0  0  0  0  0  0  0  0  0
   -5.4176    6.0094    0.9956 C   0  0  0  0  0  0  0  0  0  0  0  0
   -6.2408    6.8913    1.6989 C   0  0  0  0  0  0  0  0  0  0  0  0
   -6.3577    6.7801    3.0843 C   0  0  0  0  0  0  0  0  0  0  0  0
   -5.6492    5.7791    3.7493 C   0  0  0  0  0  0  0  0  0  0  0  0
   -4.8517    4.9296    3.0487 N   0  0  0  0  0  0  0  0  0  0  0  0
   -3.1609    4.3908   -0.1998 C   0  0  0  0  0  0  0  0  0  0  0  0
   -2.3266    3.4687   -0.8376 C   0  0  0  0  0  0  0  0  0  0  0  0
   -2.1951   -0.9052   -0.7789 C   0  0  0  0  0  0  0  0  0  0  0  0
   -2.8981   -0.7638   -1.8165 O   0  0  0  0  0  0  0  0  0  0  0  0
   -2.5154   -1.9149    0.1919 N   0  0  0  0  0  0  0  0  0  0  0  0
   -3.6427   -2.8003    0.0897 C   0  0  0  0  0  0  0  0  0  0  0  0
   -4.4157   -2.7382   -0.9060 O   0  0  0  0  0  0  0  0  0  0  0  0
   -3.8640   -3.8509    1.1547 C   0  0  1  0  0  0  0  0  0  0  0  0
   -5.3616   -4.1657    1.3272 C   0  0  0  0  0  0  0  0  0  0  0  0
   -2.9801   -5.1041    0.8840 C   0  0  0  0  0  0  0  0  0  0  0  0
   -2.9241   -6.0406    2.1004 C   0  0  0  0  0  0  0  0  0  0  0  0
   -3.3957   -5.8889   -0.3716 C   0  0  0  0  0  0  0  0  0  0  0  0
    9.5007    1.0627   -1.2432 H   0  0  0  0  0  0  0  0  0  0  0  0
    8.3484    0.3585   -2.4447 H   0  0  0  0  0  0  0  0  0  0  0  0
    9.6984   -0.6389   -1.7839 H   0  0  0  0  0  0  0  0  0  0  0  0
    8.7247   -0.5675    0.4696 H   0  0  0  0  0  0  0  0  0  0  0  0
    6.7142   -1.4933   -1.6838 H   0  0  0  0  0  0  0  0  0  0  0  0
    6.7097   -2.0149    0.0502 H   0  0  0  0  0  0  0  0  0  0  0  0
    8.0953   -2.4203   -1.0048 H   0  0  0  0  0  0  0  0  0  0  0  0
    7.7092    1.7056    0.2533 H   0  0  0  0  0  0  0  0  0  0  0  0
    5.8138   -0.4118    1.4204 H   0  0  0  0  0  0  0  0  0  0  0  0
    5.7914    1.3584    1.7450 H   0  0  0  0  0  0  0  0  0  0  0  0
    7.2210    0.3755    2.2130 H   0  0  0  0  0  0  0  0  0  0  0  0
    4.7194   -0.4584   -0.5727 H   0  0  0  0  0  0  0  0  0  0  0  0
    2.9016   -1.1761   -1.9178 H   0  0  0  0  0  0  0  0  0  0  0  0
    1.8085    0.6892   -3.7920 H   0  0  0  0  0  0  0  0  0  0  0  0
    1.1969    1.3648   -1.5631 H   0  0  0  0  0  0  0  0  0  0  0  0
    1.5118    1.0569    0.5290 H   0  0  0  0  0  0  0  0  0  0  0  0
   -0.1258   -0.5653   -2.4880 H   0  0  0  0  0  0  0  0  0  0  0  0
    0.7537   -2.3970   -1.8117 H   0  0  0  0  0  0  0  0  0  0  0  0
   -0.6854   -0.0365    0.4880 H   0  0  0  0  0  0  0  0  0  0  0  0
   -2.6429    0.8777    1.3535 H   0  0  0  0  0  0  0  0  0  0  0  0
   -4.0991    2.4784    2.4632 H   0  0  0  0  0  0  0  0  0  0  0  0
   -5.3614    6.0922   -0.0814 H   0  0  0  0  0  0  0  0  0  0  0  0
   -6.7933    7.6564    1.1689 H   0  0  0  0  0  0  0  0  0  0  0  0
   -6.9950    7.4588    3.6362 H   0  0  0  0  0  0  0  0  0  0  0  0
   -5.7333    5.6760    4.8228 H   0  0  0  0  0  0  0  0  0  0  0  0
   -3.2661    5.3759   -0.6343 H   0  0  0  0  0  0  0  0  0  0  0  0
   -1.8258    3.7487   -1.7559 H   0  0  0  0  0  0  0  0  0  0  0  0
   -1.8851   -2.0180    1.0189 H   0  0  0  0  0  0  0  0  0  0  0  0
   -3.5285   -3.4044    2.1173 H   0  0  0  0  0  0  0  0  0  0  0  0
   -5.7942   -4.6046    0.4042 H   0  0  0  0  0  0  0  0  0  0  0  0
   -5.9161   -3.2311    1.5588 H   0  0  0  0  0  0  0  0  0  0  0  0
   -5.5225   -4.8661    2.1719 H   0  0  0  0  0  0  0  0  0  0  0  0
   -1.9387   -4.7470    0.7161 H   0  0  0  0  0  0  0  0  0  0  0  0
   -2.1621   -6.8318    1.9337 H   0  0  0  0  0  0  0  0  0  0  0  0
   -3.9033   -6.5339    2.2734 H   0  0  0  0  0  0  0  0  0  0  0  0
   -2.6362   -5.4755    3.0122 H   0  0  0  0  0  0  0  0  0  0  0  0
   -3.4264   -5.2243   -1.2596 H   0  0  0  0  0  0  0  0  0  0  0  0
   -2.6546   -6.6908   -0.5764 H   0  0  0  0  0  0  0  0  0  0  0  0
   -4.3897   -6.3645   -0.2369 H   0  0  0  0  0  0  0  0  0  0  0  0
  1  2  1  0
  2  3  1  0
  2  4  1  0
  4  5  1  0
  4  6  1  0
  6  7  2  0
  6  8  1  0
  8  9  1  0
  9 10  2  0
  9 11  1  0
 11 12  1  0
 11 13  1  0
 13 14  1  0
 13 15  1  0
 15 16  1  0
 15 17  1  0
 17 18  1  0
 18 19  1  0
 19 20  2  0
 20 21  1  0
 21 22  2  0
 22 23  1  0
 23 24  2  0
 24 25  1  0
 25 26  2  0
 26 27  1  0
 27 28  2  0
 22 29  1  0
 29 30  2  0
 17 31  1  0
 31 32  2  0
 31 33  1  0
 33 34  1  0
 34 35  2  0
 34 36  1  0
 36 37  1  0
 36 38  1  0
 38 39  1  0
 38 40  1  0
 28 23  1  0
 30 19  1  0
  1 41  1  0
  1 42  1  0
  1 43  1  0
  2 44  1  0
  3 45  1  0
  3 46  1  0
  3 47  1  0
  4 48  1  1
  5 49  1  0
  5 50  1  0
  5 51  1  0
  8 52  1  0
 11 53  1  1
 12 54  1  0
 13 55  1  6
 14 56  1  0
 15 57  1  6
 16 58  1  0
 17 59  1  1
 20 60  1  0
 21 61  1  0
 24 62  1  0
 25 63  1  0
 26 64  1  0
 27 65  1  0
 29 66  1  0
 30 67  1  0
 33 68  1  0
 36 69  1  1
 37 70  1  0
 37 71  1  0
 37 72  1  0
 38 73  1  0
 39 74  1  0
 39 75  1  0
 39 76  1  0
 40 77  1  0
 40 78  1  0
 40 79  1  0
M  END
$$$$
