
     RDKit          3D

 63 66  0  0  0  0  0  0  0  0999 V2000
   -0.9329    3.9924   -2.0939 C   0  0  0  0  0  0  0  0  0  0  0  0
   -0.0662    2.7526   -2.3197 C   0  0  0  0  0  0  0  0  0  0  0  0
   -0.0998    1.7895   -1.1078 C   0  0  0  0  0  0  0  0  0  0  0  0
    0.9563    0.6920   -1.1450 C   0  0  0  0  0  0  0  0  0  0  0  0
    1.5489    0.2422   -2.3417 C   0  0  0  0  0  0  0  0  0  0  0  0
    2.4884   -0.7896   -2.3209 C   0  0  0  0  0  0  0  0  0  0  0  0
    2.8478   -1.3925   -1.1150 C   0  0  0  0  0  0  0  0  0  0  0  0
    2.2678   -0.9657    0.0924 C   0  0  0  0  0  0  0  0  0  0  0  0
    2.6119   -1.5645    1.3550 N   0  0  0  0  0  0  0  0  0  0  0  0
    3.9528   -2.6428    1.5829 S   0  0  0  0  0  0  0  0  0  0  0  0
    4.1203   -2.9220    3.0497 O   0  0  0  0  0  0  0  0  0  0  0  0
    3.6710   -3.9348    0.8679 O   0  0  0  0  0  0  0  0  0  0  0  0
    5.4309   -1.9030    0.9757 C   0  0  0  0  0  0  0  0  0  0  0  0
    5.6445   -0.5281    1.1439 C   0  0  0  0  0  0  0  0  0  0  0  0
    6.8100    0.0681    0.6528 C   0  0  0  0  0  0  0  0  0  0  0  0
    7.7715   -0.7085   -0.0062 C   0  0  0  0  0  0  0  0  0  0  0  0
    8.9711   -0.0949   -0.5126 C   0  0  0  0  0  0  0  0  0  0  0  0
    9.9356    0.3983   -0.9198 N   0  0  0  0  0  0  0  0  0  0  0  0
    7.5630   -2.0839   -0.1701 C   0  0  0  0  0  0  0  0  0  0  0  0
    6.3968   -2.6796    0.3204 C   0  0  0  0  0  0  0  0  0  0  0  0
    1.3192    0.0684    0.0632 C   0  0  0  0  0  0  0  0  0  0  0  0
   -1.4905    1.1880   -0.8955 C   0  0  0  0  0  0  0  0  0  0  0  0
   -2.2540    1.5219    0.2432 C   0  0  0  0  0  0  0  0  0  0  0  0
   -1.6863    2.3529    1.2155 O   0  0  0  0  0  0  0  0  0  0  0  0
   -3.5608    0.9979    0.3894 C   0  0  0  0  0  0  0  0  0  0  0  0
   -4.4949    1.4827    1.4813 C   0  0  0  0  0  0  0  0  0  0  0  0
   -4.6367    0.4768    2.6446 C   0  0  0  0  0  0  0  0  0  0  0  0
   -5.9759   -0.2930    2.6132 C   0  0  0  0  0  0  0  0  0  0  0  0
   -5.9290   -1.6914    1.9628 C   0  0  0  0  0  0  0  0  0  0  0  0
   -5.0550   -1.8466    0.7064 C   0  0  0  0  0  0  0  0  0  0  0  0
   -5.2638   -0.7555   -0.3641 C   0  0  0  0  0  0  0  0  0  0  0  0
   -3.9942    0.0347   -0.5487 C   0  0  0  0  0  0  0  0  0  0  0  0
   -3.2338   -0.2666   -1.5940 O   0  0  0  0  0  0  0  0  0  0  0  0
   -2.0454    0.2753   -1.8154 C   0  0  0  0  0  0  0  0  0  0  0  0
   -1.4149   -0.0600   -2.8523 O   0  0  0  0  0  0  0  0  0  0  0  0
   -0.8407    4.6730   -2.9664 H   0  0  0  0  0  0  0  0  0  0  0  0
   -0.6021    4.5371   -1.1842 H   0  0  0  0  0  0  0  0  0  0  0  0
   -2.0004    3.7072   -1.9832 H   0  0  0  0  0  0  0  0  0  0  0  0
   -0.4146    2.2472   -3.2444 H   0  0  0  0  0  0  0  0  0  0  0  0
    0.9795    3.0920   -2.4880 H   0  0  0  0  0  0  0  0  0  0  0  0
    0.1770    2.4215   -0.2364 H   0  0  0  0  0  0  0  0  0  0  0  0
    1.2878    0.6749   -3.2970 H   0  0  0  0  0  0  0  0  0  0  0  0
    2.9363   -1.1286   -3.2463 H   0  0  0  0  0  0  0  0  0  0  0  0
    3.5697   -2.1956   -1.1394 H   0  0  0  0  0  0  0  0  0  0  0  0
    2.0821   -1.2839    2.2105 H   0  0  0  0  0  0  0  0  0  0  0  0
    4.9081    0.0821    1.6513 H   0  0  0  0  0  0  0  0  0  0  0  0
    6.9610    1.1326    0.7866 H   0  0  0  0  0  0  0  0  0  0  0  0
    8.3007   -2.6946   -0.6768 H   0  0  0  0  0  0  0  0  0  0  0  0
    6.2482   -3.7434    0.1872 H   0  0  0  0  0  0  0  0  0  0  0  0
    0.8602    0.3931    0.9897 H   0  0  0  0  0  0  0  0  0  0  0  0
   -2.0562    2.4633    2.1496 H   0  0  0  0  0  0  0  0  0  0  0  0
   -5.4774    1.7345    1.0313 H   0  0  0  0  0  0  0  0  0  0  0  0
   -4.1680    2.4628    1.8805 H   0  0  0  0  0  0  0  0  0  0  0  0
   -4.6108    1.0598    3.5917 H   0  0  0  0  0  0  0  0  0  0  0  0
   -3.7710   -0.2186    2.6964 H   0  0  0  0  0  0  0  0  0  0  0  0
   -6.7759    0.3125    2.1362 H   0  0  0  0  0  0  0  0  0  0  0  0
   -6.3146   -0.4360    3.6631 H   0  0  0  0  0  0  0  0  0  0  0  0
   -5.5635   -2.4196    2.7198 H   0  0  0  0  0  0  0  0  0  0  0  0
   -6.9698   -1.9911    1.7107 H   0  0  0  0  0  0  0  0  0  0  0  0
   -5.2908   -2.8353    0.2547 H   0  0  0  0  0  0  0  0  0  0  0  0
   -3.9882   -1.9144    1.0169 H   0  0  0  0  0  0  0  0  0  0  0  0
   -5.5146   -1.2469   -1.3299 H   0  0  0  0  0  0  0  0  0  0  0  0
   -6.1259   -0.0960   -0.1398 H   0  0  0  0  0  0  0  0  0  0  0  0
  1  2  1  0
  2  3  1  0
  3  4  1  0
  4  5  2  0
  5  6  1  0
  6  7  2  0
  7  8  1  0
  8  9  1  0
  9 10  1  0
 10 11  2  0
 10 12  2  0
 10 13  1  0
 13 14  2  0
 14 15  1  0
 15 16  2  0
 16 17  1  0
 17 18  3  0
 16 19  1  0
 19 20  2  0
  8 21  2  0
  3 22  1  0
 22 23  2  0
 23 24  1  0
 23 25  1  0
 25 26  1  0
 26 27  1  0
 27 28  1  0
 28 29  1  0
 29 30  1  0
 30 31  1  0
 31 32  1  0
 32 33  1  0
 33 34  1  0
 34 35  2  0
 20 13  1  0
 21  4  1  0
 32 25  2  0
 34 22  1  0
  1 36  1  0
  1 37  1  0
  1 38  1  0
  2 39  1  0
  2 40  1  0
  3 41  1  0
  5 42  1  0
  6 43  1  0
  7 44  1  0
  9 45  1  0
 14 46  1  0
 15 47  1  0
 19 48  1  0
 20 49  1  0
 21 50  1  0
 24 51  1  0
 26 52  1  0
 26 53  1  0
 27 54  1  0
 27 55  1  0
 28 56  1  0
 28 57  1  0
 29 58  1  0
 29 59  1  0
 30 60  1  0
 30 61  1  0
 31 62  1  0
 31 63  1  0
M  END
$$$$
