
     RDKit          3D

 77 80  0  0  0  0  0  0  0  0999 V2000
   -5.7338    1.1433   -0.6084 C   0  0  0  0  0  0  0  0  0  0  0  0
   -5.4988    1.9807    0.6263 C   0  0  0  0  0  0  0  0  0  0  0  0
   -6.4099    3.0121    0.9416 C   0  0  0  0  0  0  0  0  0  0  0  0
   -7.4872    3.2810    0.0964 O   0  0  0  0  0  0  0  0  0  0  0  0
   -6.2392    3.7698    2.1072 C   0  0  0  0  0  0  0  0  0  0  0  0
   -5.1681    3.5164    2.9612 C   0  0  0  0  0  0  0  0  0  0  0  0
   -4.2450    2.5198    2.6488 C   0  0  0  0  0  0  0  0  0  0  0  0
   -4.3810    1.7610    1.4748 C   0  0  0  0  0  0  0  0  0  0  0  0
   -3.3405    0.7553    1.1731 C   0  0  0  0  0  0  0  0  0  0  0  0
   -2.9601   -0.0294    2.0844 O   0  0  0  0  0  0  0  0  0  0  0  0
   -2.7230    0.7074   -0.1229 N   0  0  0  0  0  0  0  0  0  0  0  0
   -1.6551   -0.2460   -0.4407 C   0  0  2  0  0  0  0  0  0  0  0  0
   -0.3028    0.2969    0.0996 C   0  0  0  0  0  0  0  0  0  0  0  0
    0.5463   -0.7942    0.7871 C   0  0  2  0  0  0  0  0  0  0  0  0
   -0.1699   -1.3413    1.8651 O   0  0  0  0  0  0  0  0  0  0  0  0
    1.9358   -0.2753    1.2662 C   0  0  2  0  0  0  0  0  0  0  0  0
    1.8732    0.8989    2.2785 C   0  0  0  0  0  0  0  0  0  0  0  0
    1.1314    0.5571    3.5471 C   0  0  0  0  0  0  0  0  0  0  0  0
   -0.1250    1.1289    3.8167 C   0  0  0  0  0  0  0  0  0  0  0  0
   -0.8210    0.7849    4.9793 C   0  0  0  0  0  0  0  0  0  0  0  0
   -0.2678   -0.1253    5.8836 C   0  0  0  0  0  0  0  0  0  0  0  0
    0.9840   -0.6916    5.6280 C   0  0  0  0  0  0  0  0  0  0  0  0
    1.6831   -0.3521    4.4657 C   0  0  0  0  0  0  0  0  0  0  0  0
    2.7527    0.1164    0.1103 N   0  0  0  0  0  0  0  0  0  0  0  0
    3.3098   -0.8443   -0.8017 C   0  0  0  0  0  0  0  0  0  0  0  0
    3.2156   -2.0756   -0.5454 O   0  0  0  0  0  0  0  0  0  0  0  0
    3.9639   -0.3980   -2.0592 C   0  0  0  0  0  0  0  0  0  0  0  0
    3.4339    0.7196   -2.7295 C   0  0  0  0  0  0  0  0  0  0  0  0
    3.9611    1.1369   -3.9494 C   0  0  0  0  0  0  0  0  0  0  0  0
    5.0223    0.4453   -4.5257 C   0  0  0  0  0  0  0  0  0  0  0  0
    5.5780   -0.6648   -3.8792 C   0  0  0  0  0  0  0  0  0  0  0  0
    6.6344   -1.3504   -4.4803 O   0  0  0  0  0  0  0  0  0  0  0  0
    5.0712   -1.0861   -2.6293 C   0  0  0  0  0  0  0  0  0  0  0  0
    5.7033   -2.2685   -1.9340 C   0  0  0  0  0  0  0  0  0  0  0  0
   -1.6308   -0.4910   -1.9654 C   0  0  0  0  0  0  0  0  0  0  0  0
   -0.6491   -1.5629   -2.3693 C   0  0  0  0  0  0  0  0  0  0  0  0
    0.5035   -1.2326   -3.1019 C   0  0  0  0  0  0  0  0  0  0  0  0
    1.4132   -2.2278   -3.4723 C   0  0  0  0  0  0  0  0  0  0  0  0
    1.1855   -3.5564   -3.1061 C   0  0  0  0  0  0  0  0  0  0  0  0
    0.0394   -3.8949   -2.3820 C   0  0  0  0  0  0  0  0  0  0  0  0
   -0.8793   -2.9048   -2.0201 C   0  0  0  0  0  0  0  0  0  0  0  0
   -5.2524    1.6253   -1.4844 H   0  0  0  0  0  0  0  0  0  0  0  0
   -6.8193    1.0341   -0.8144 H   0  0  0  0  0  0  0  0  0  0  0  0
   -5.3337    0.1159   -0.4827 H   0  0  0  0  0  0  0  0  0  0  0  0
   -8.1546    4.0153    0.3021 H   0  0  0  0  0  0  0  0  0  0  0  0
   -6.9417    4.5557    2.3540 H   0  0  0  0  0  0  0  0  0  0  0  0
   -5.0455    4.1029    3.8627 H   0  0  0  0  0  0  0  0  0  0  0  0
   -3.4059    2.3557    3.3144 H   0  0  0  0  0  0  0  0  0  0  0  0
   -2.9204    1.4826   -0.7958 H   0  0  0  0  0  0  0  0  0  0  0  0
   -1.9083   -1.2145    0.0445 H   0  0  0  0  0  0  0  0  0  0  0  0
   -0.5062    1.1004    0.8359 H   0  0  0  0  0  0  0  0  0  0  0  0
    0.2800    0.7672   -0.7220 H   0  0  0  0  0  0  0  0  0  0  0  0
    0.7204   -1.5983    0.0384 H   0  0  0  0  0  0  0  0  0  0  0  0
    0.2615   -2.2069    2.0900 H   0  0  0  0  0  0  0  0  0  0  0  0
    2.4550   -1.1162    1.7780 H   0  0  0  0  0  0  0  0  0  0  0  0
    2.9132    1.1781    2.5565 H   0  0  0  0  0  0  0  0  0  0  0  0
    1.4377    1.8013    1.7988 H   0  0  0  0  0  0  0  0  0  0  0  0
   -0.5689    1.8369    3.1288 H   0  0  0  0  0  0  0  0  0  0  0  0
   -1.7900    1.2239    5.1789 H   0  0  0  0  0  0  0  0  0  0  0  0
   -0.8082   -0.3907    6.7830 H   0  0  0  0  0  0  0  0  0  0  0  0
    1.4122   -1.3953    6.3301 H   0  0  0  0  0  0  0  0  0  0  0  0
    2.6509   -0.8005    4.2787 H   0  0  0  0  0  0  0  0  0  0  0  0
    2.9873    1.1260   -0.0266 H   0  0  0  0  0  0  0  0  0  0  0  0
    2.5810    1.2531   -2.3291 H   0  0  0  0  0  0  0  0  0  0  0  0
    3.5334    1.9910   -4.4586 H   0  0  0  0  0  0  0  0  0  0  0  0
    5.4134    0.7721   -5.4809 H   0  0  0  0  0  0  0  0  0  0  0  0
    7.0129   -1.0661   -5.3763 H   0  0  0  0  0  0  0  0  0  0  0  0
    5.7895   -2.0774   -0.8438 H   0  0  0  0  0  0  0  0  0  0  0  0
    5.0875   -3.1755   -2.1082 H   0  0  0  0  0  0  0  0  0  0  0  0
    6.7320   -2.4651   -2.3006 H   0  0  0  0  0  0  0  0  0  0  0  0
   -2.6452   -0.8054   -2.2955 H   0  0  0  0  0  0  0  0  0  0  0  0
   -1.4067    0.4629   -2.4924 H   0  0  0  0  0  0  0  0  0  0  0  0
    0.6963   -0.2070   -3.3890 H   0  0  0  0  0  0  0  0  0  0  0  0
    2.2980   -1.9682   -4.0391 H   0  0  0  0  0  0  0  0  0  0  0  0
    1.8952   -4.3238   -3.3868 H   0  0  0  0  0  0  0  0  0  0  0  0
   -0.1387   -4.9254   -2.1031 H   0  0  0  0  0  0  0  0  0  0  0  0
   -1.7658   -3.1822   -1.4635 H   0  0  0  0  0  0  0  0  0  0  0  0
  1  2  1  0
  2  3  2  0
  3  4  1  0
  3  5  1  0
  5  6  2  0
  6  7  1  0
  7  8  2  0
  8  9  1  0
  9 10  2  0
  9 11  1  0
 11 12  1  0
 12 13  1  0
 13 14  1  0
 14 15  1  0
 14 16  1  0
 16 17  1  0
 17 18  1  0
 18 19  2  0
 19 20  1  0
 20 21  2  0
 21 22  1  0
 22 23  2  0
 16 24  1  0
 24 25  1  0
 25 26  2  0
 25 27  1  0
 27 28  2  0
 28 29  1  0
 29 30  2  0
 30 31  1  0
 31 32  1  0
 31 33  2  0
 33 34  1  0
 12 35  1  0
 35 36  1  0
 36 37  2  0
 37 38  1  0
 38 39  2  0
 39 40  1  0
 40 41  2  0
  8  2  1  0
 23 18  1  0
 33 27  1  0
 41 36  1  0
  1 42  1  0
  1 43  1  0
  1 44  1  0
  4 45  1  0
  5 46  1  0
  6 47  1  0
  7 48  1  0
 11 49  1  0
 12 50  1  1
 13 51  1  0
 13 52  1  0
 14 53  1  6
 15 54  1  0
 16 55  1  1
 17 56  1  0
 17 57  1  0
 19 58  1  0
 20 59  1  0
 21 60  1  0
 22 61  1  0
 23 62  1  0
 24 63  1  0
 28 64  1  0
 29 65  1  0
 30 66  1  0
 32 67  1  0
 34 68  1  0
 34 69  1  0
 34 70  1  0
 35 71  1  0
 35 72  1  0
 37 73  1  0
 38 74  1  0
 39 75  1  0
 40 76  1  0
 41 77  1  0
M  END
$$$$
