
     RDKit          3D

 64 68  0  0  0  0  0  0  0  0999 V2000
    4.0226    3.9255   -0.7185 C   0  0  0  0  0  0  0  0  0  0  0  0
    4.6139    2.5221   -0.8647 C   0  0  0  0  0  0  0  0  0  0  0  0
    3.7679    1.4552   -0.1267 C   0  0  0  0  0  0  0  0  0  0  0  0
    2.4414    1.2028   -0.8220 C   0  0  0  0  0  0  0  0  0  0  0  0
    2.3914    0.6423   -2.1109 C   0  0  0  0  0  0  0  0  0  0  0  0
    1.1637    0.4015   -2.7302 C   0  0  0  0  0  0  0  0  0  0  0  0
   -0.0280    0.7234   -2.0784 C   0  0  0  0  0  0  0  0  0  0  0  0
   -0.0008    1.3050   -0.7996 C   0  0  0  0  0  0  0  0  0  0  0  0
   -1.2134    1.6201   -0.0944 N   0  0  0  0  0  0  0  0  0  0  0  0
   -2.4219    2.0636   -0.7320 C   0  0  0  0  0  0  0  0  0  0  0  0
   -2.4057    2.4685   -1.9260 O   0  0  0  0  0  0  0  0  0  0  0  0
   -3.7187    2.0611    0.0244 C   0  0  0  0  0  0  0  0  0  0  0  0
   -4.6146    0.8799   -0.3880 C   0  0  0  0  0  0  0  0  0  0  0  0
   -4.0739   -0.4330    0.0311 N   0  0  0  0  0  0  0  0  0  0  0  0
   -4.6748   -1.0157    1.2473 C   0  0  0  0  0  0  0  0  0  0  0  0
   -4.6571   -0.0834    2.4365 C   0  0  0  0  0  0  0  0  0  0  0  0
   -5.8849    0.1463    2.8979 C   0  0  0  0  0  0  0  0  0  0  0  0
   -6.8286   -0.5859    2.0754 C   0  0  0  0  0  0  0  0  0  0  0  0
   -8.2181   -0.6494    2.1701 C   0  0  0  0  0  0  0  0  0  0  0  0
   -8.9114   -1.4393    1.2374 C   0  0  0  0  0  0  0  0  0  0  0  0
   -8.2079   -2.1441    0.2391 C   0  0  0  0  0  0  0  0  0  0  0  0
   -6.8068   -2.0625    0.1666 C   0  0  0  0  0  0  0  0  0  0  0  0
   -6.1405   -1.2678    1.1007 C   0  0  0  0  0  0  0  0  0  0  0  0
    1.2351    1.5228   -0.1723 C   0  0  0  0  0  0  0  0  0  0  0  0
    4.4883    0.1298    0.1459 C   0  0  0  0  0  0  0  0  0  0  0  0
    4.1464   -0.6040    1.3051 C   0  0  0  0  0  0  0  0  0  0  0  0
    3.1910   -0.1153    2.1928 O   0  0  0  0  0  0  0  0  0  0  0  0
    4.7213   -1.7726    1.5685 O   0  0  0  0  0  0  0  0  0  0  0  0
    5.6238   -2.3299    0.7736 C   0  0  0  0  0  0  0  0  0  0  0  0
    6.1861   -3.5627    1.1241 C   0  0  0  0  0  0  0  0  0  0  0  0
    7.1322   -4.1652    0.2910 C   0  0  0  0  0  0  0  0  0  0  0  0
    7.5200   -3.5394   -0.8963 C   0  0  0  0  0  0  0  0  0  0  0  0
    6.9648   -2.3075   -1.2557 C   0  0  0  0  0  0  0  0  0  0  0  0
    6.0122   -1.6902   -0.4215 C   0  0  0  0  0  0  0  0  0  0  0  0
    5.4273   -0.4526   -0.7408 C   0  0  0  0  0  0  0  0  0  0  0  0
    5.7443    0.1226   -1.8166 O   0  0  0  0  0  0  0  0  0  0  0  0
    3.9772    4.2188    0.3519 H   0  0  0  0  0  0  0  0  0  0  0  0
    4.6629    4.6558   -1.2566 H   0  0  0  0  0  0  0  0  0  0  0  0
    3.0015    3.9645   -1.1535 H   0  0  0  0  0  0  0  0  0  0  0  0
    5.6425    2.5353   -0.4423 H   0  0  0  0  0  0  0  0  0  0  0  0
    4.6841    2.2993   -1.9499 H   0  0  0  0  0  0  0  0  0  0  0  0
    3.5656    1.9057    0.8708 H   0  0  0  0  0  0  0  0  0  0  0  0
    3.2990    0.3828   -2.6371 H   0  0  0  0  0  0  0  0  0  0  0  0
    1.1355   -0.0453   -3.7157 H   0  0  0  0  0  0  0  0  0  0  0  0
   -0.9669    0.4928   -2.5636 H   0  0  0  0  0  0  0  0  0  0  0  0
   -1.1973    1.5805    0.9499 H   0  0  0  0  0  0  0  0  0  0  0  0
   -4.2562    3.0093   -0.1934 H   0  0  0  0  0  0  0  0  0  0  0  0
   -3.5287    2.0407    1.1167 H   0  0  0  0  0  0  0  0  0  0  0  0
   -4.7195    0.8760   -1.4941 H   0  0  0  0  0  0  0  0  0  0  0  0
   -5.6361    1.0529    0.0121 H   0  0  0  0  0  0  0  0  0  0  0  0
   -3.0360   -0.3972    0.1540 H   0  0  0  0  0  0  0  0  0  0  0  0
   -4.1592   -1.9657    1.5071 H   0  0  0  0  0  0  0  0  0  0  0  0
   -3.7609    0.3263    2.8834 H   0  0  0  0  0  0  0  0  0  0  0  0
   -6.1255    0.7711    3.7477 H   0  0  0  0  0  0  0  0  0  0  0  0
   -8.7492   -0.1054    2.9404 H   0  0  0  0  0  0  0  0  0  0  0  0
   -9.9903   -1.5076    1.2863 H   0  0  0  0  0  0  0  0  0  0  0  0
   -8.7493   -2.7513   -0.4746 H   0  0  0  0  0  0  0  0  0  0  0  0
   -6.2588   -2.6003   -0.5959 H   0  0  0  0  0  0  0  0  0  0  0  0
    1.2527    1.9523    0.8220 H   0  0  0  0  0  0  0  0  0  0  0  0
    2.9388   -0.6384    3.0225 H   0  0  0  0  0  0  0  0  0  0  0  0
    5.8884   -4.0548    2.0416 H   0  0  0  0  0  0  0  0  0  0  0  0
    7.5644   -5.1188    0.5653 H   0  0  0  0  0  0  0  0  0  0  0  0
    8.2525   -4.0097   -1.5396 H   0  0  0  0  0  0  0  0  0  0  0  0
    7.2822   -1.8422   -2.1808 H   0  0  0  0  0  0  0  0  0  0  0  0
  1  2  1  0
  2  3  1  0
  3  4  1  0
  4  5  2  0
  5  6  1  0
  6  7  2  0
  7  8  1  0
  8  9  1  0
  9 10  1  0
 10 11  2  0
 10 12  1  0
 12 13  1  0
 13 14  1  0
 14 15  1  0
 15 16  1  0
 16 17  2  0
 17 18  1  0
 18 19  2  0
 19 20  1  0
 20 21  2  0
 21 22  1  0
 22 23  2  0
  8 24  2  0
  3 25  1  0
 25 26  2  0
 26 27  1  0
 26 28  1  0
 28 29  1  0
 29 30  2  0
 30 31  1  0
 31 32  2  0
 32 33  1  0
 33 34  2  0
 34 35  1  0
 35 36  2  0
 23 15  1  0
 23 18  1  0
 24  4  1  0
 34 29  1  0
 35 25  1  0
  1 37  1  0
  1 38  1  0
  1 39  1  0
  2 40  1  0
  2 41  1  0
  3 42  1  0
  5 43  1  0
  6 44  1  0
  7 45  1  0
  9 46  1  0
 12 47  1  0
 12 48  1  0
 13 49  1  0
 13 50  1  0
 14 51  1  0
 15 52  1  0
 16 53  1  0
 17 54  1  0
 19 55  1  0
 20 56  1  0
 21 57  1  0
 22 58  1  0
 24 59  1  0
 27 60  1  0
 30 61  1  0
 31 62  1  0
 32 63  1  0
 33 64  1  0
M  END
$$$$
