
     RDKit          3D

 72 75  0  0  0  0  0  0  0  0999 V2000
   -4.1548    3.3676    1.0248 C   0  0  0  0  0  0  0  0  0  0  0  0
   -3.0607    2.3187    1.2242 C   0  0  0  0  0  0  0  0  0  0  0  0
   -2.4887    1.8034   -0.1157 C   0  0  0  0  0  0  0  0  0  0  0  0
   -2.9875    0.3964   -0.5299 C   0  0  0  0  0  0  0  0  0  0  0  0
   -4.5081    0.3894   -0.7832 C   0  0  0  0  0  0  0  0  0  0  0  0
   -5.0032   -0.9639   -1.3152 C   0  0  0  0  0  0  0  0  0  0  0  0
   -6.4964   -0.9410   -1.5035 C   0  0  0  0  0  0  0  0  0  0  0  0
   -7.3496   -1.2989   -0.4461 C   0  0  0  0  0  0  0  0  0  0  0  0
   -8.7371   -1.2435   -0.6114 C   0  0  0  0  0  0  0  0  0  0  0  0
   -9.2815   -0.8218   -1.8276 C   0  0  0  0  0  0  0  0  0  0  0  0
   -8.4392   -0.4506   -2.8794 C   0  0  0  0  0  0  0  0  0  0  0  0
   -7.0512   -0.5045   -2.7183 C   0  0  0  0  0  0  0  0  0  0  0  0
   -2.6757   -0.5417    0.5054 O   0  0  0  0  0  0  0  0  0  0  0  0
   -1.4206   -1.1543    0.6237 C   0  0  0  0  0  0  0  0  0  0  0  0
   -1.0764   -1.7003    1.8544 O   0  0  0  0  0  0  0  0  0  0  0  0
   -0.5882   -1.2152   -0.4390 C   0  0  0  0  0  0  0  0  0  0  0  0
    0.8356   -1.7761   -0.3944 C   0  0  0  0  0  0  0  0  0  0  0  0
    1.0380   -3.0031    0.5284 C   0  0  0  0  0  0  0  0  0  0  0  0
    2.3148   -3.7733    0.1863 C   0  0  0  0  0  0  0  0  0  0  0  0
    1.8271   -0.6673   -0.0887 C   0  0  0  0  0  0  0  0  0  0  0  0
    1.7911    0.0210    1.1367 C   0  0  0  0  0  0  0  0  0  0  0  0
    2.7061    1.0405    1.4016 C   0  0  0  0  0  0  0  0  0  0  0  0
    3.6712    1.3839    0.4537 C   0  0  0  0  0  0  0  0  0  0  0  0
    3.7333    0.7031   -0.7752 C   0  0  0  0  0  0  0  0  0  0  0  0
    4.7222    1.0233   -1.7699 N   0  0  0  0  0  0  0  0  0  0  0  0
    6.1513    1.9523   -1.4431 S   0  0  0  0  0  0  0  0  0  0  0  0
    5.7640    3.3879   -1.2217 O   0  0  0  0  0  0  0  0  0  0  0  0
    7.0765    1.8712   -2.6241 O   0  0  0  0  0  0  0  0  0  0  0  0
    6.9793    1.3039   -0.0306 C   0  0  0  0  0  0  0  0  0  0  0  0
    7.5792    2.1645    0.8994 C   0  0  0  0  0  0  0  0  0  0  0  0
    8.2222    1.6430    2.0265 C   0  0  0  0  0  0  0  0  0  0  0  0
    8.2710    0.2579    2.2293 C   0  0  0  0  0  0  0  0  0  0  0  0
    8.9308   -0.2787    3.3906 C   0  0  0  0  0  0  0  0  0  0  0  0
    9.4613   -0.7102    4.3242 N   0  0  0  0  0  0  0  0  0  0  0  0
    7.6766   -0.6037    1.2986 C   0  0  0  0  0  0  0  0  0  0  0  0
    7.0349   -0.0820    0.1713 C   0  0  0  0  0  0  0  0  0  0  0  0
    2.8017   -0.3132   -1.0393 C   0  0  0  0  0  0  0  0  0  0  0  0
   -1.0823   -0.6255   -1.7061 C   0  0  0  0  0  0  0  0  0  0  0  0
   -0.4141   -0.7186   -2.7697 O   0  0  0  0  0  0  0  0  0  0  0  0
   -2.3149    0.0262   -1.7337 O   0  0  0  0  0  0  0  0  0  0  0  0
   -3.7434    4.2545    0.4975 H   0  0  0  0  0  0  0  0  0  0  0  0
   -4.9991    2.9563    0.4354 H   0  0  0  0  0  0  0  0  0  0  0  0
   -4.5405    3.6935    2.0136 H   0  0  0  0  0  0  0  0  0  0  0  0
   -2.2405    2.7922    1.8069 H   0  0  0  0  0  0  0  0  0  0  0  0
   -3.4563    1.4865    1.8447 H   0  0  0  0  0  0  0  0  0  0  0  0
   -1.3815    1.7563   -0.0170 H   0  0  0  0  0  0  0  0  0  0  0  0
   -2.6900    2.5266   -0.9370 H   0  0  0  0  0  0  0  0  0  0  0  0
   -4.7638    1.1838   -1.5192 H   0  0  0  0  0  0  0  0  0  0  0  0
   -5.0419    0.6061    0.1670 H   0  0  0  0  0  0  0  0  0  0  0  0
   -4.5109   -1.1956   -2.2848 H   0  0  0  0  0  0  0  0  0  0  0  0
   -4.7291   -1.7740   -0.6044 H   0  0  0  0  0  0  0  0  0  0  0  0
   -6.9404   -1.6178    0.5046 H   0  0  0  0  0  0  0  0  0  0  0  0
   -9.3904   -1.5240    0.2048 H   0  0  0  0  0  0  0  0  0  0  0  0
  -10.3556   -0.7781   -1.9534 H   0  0  0  0  0  0  0  0  0  0  0  0
   -8.8619   -0.1176   -3.8185 H   0  0  0  0  0  0  0  0  0  0  0  0
   -6.4094   -0.2048   -3.5377 H   0  0  0  0  0  0  0  0  0  0  0  0
   -1.7134   -1.6462    2.6396 H   0  0  0  0  0  0  0  0  0  0  0  0
    1.0408   -2.1600   -1.4184 H   0  0  0  0  0  0  0  0  0  0  0  0
    0.1759   -3.6966    0.4174 H   0  0  0  0  0  0  0  0  0  0  0  0
    1.1084   -2.6966    1.5930 H   0  0  0  0  0  0  0  0  0  0  0  0
    3.2064   -3.1225    0.3094 H   0  0  0  0  0  0  0  0  0  0  0  0
    2.2750   -4.1478   -0.8586 H   0  0  0  0  0  0  0  0  0  0  0  0
    2.4171   -4.6436    0.8683 H   0  0  0  0  0  0  0  0  0  0  0  0
    1.0560   -0.2265    1.8892 H   0  0  0  0  0  0  0  0  0  0  0  0
    2.6665    1.5680    2.3459 H   0  0  0  0  0  0  0  0  0  0  0  0
    4.3576    2.1847    0.6872 H   0  0  0  0  0  0  0  0  0  0  0  0
    4.6464    0.5915   -2.7181 H   0  0  0  0  0  0  0  0  0  0  0  0
    7.5484    3.2367    0.7551 H   0  0  0  0  0  0  0  0  0  0  0  0
    8.6798    2.3188    2.7390 H   0  0  0  0  0  0  0  0  0  0  0  0
    7.7088   -1.6768    1.4444 H   0  0  0  0  0  0  0  0  0  0  0  0
    6.5780   -0.7575   -0.5409 H   0  0  0  0  0  0  0  0  0  0  0  0
    2.8455   -0.8362   -1.9870 H   0  0  0  0  0  0  0  0  0  0  0  0
  1  2  1  0
  2  3  1  0
  3  4  1  0
  4  5  1  0
  5  6  1  0
  6  7  1  0
  7  8  2  0
  8  9  1  0
  9 10  2  0
 10 11  1  0
 11 12  2  0
  4 13  1  0
 13 14  1  0
 14 15  1  0
 14 16  2  0
 16 17  1  0
 17 18  1  0
 18 19  1  0
 17 20  1  0
 20 21  2  0
 21 22  1  0
 22 23  2  0
 23 24  1  0
 24 25  1  0
 25 26  1  0
 26 27  2  0
 26 28  2  0
 26 29  1  0
 29 30  2  0
 30 31  1  0
 31 32  2  0
 32 33  1  0
 33 34  3  0
 32 35  1  0
 35 36  2  0
 24 37  2  0
 16 38  1  0
 38 39  2  0
 38 40  1  0
 12  7  1  0
 36 29  1  0
 37 20  1  0
 40  4  1  0
  1 41  1  0
  1 42  1  0
  1 43  1  0
  2 44  1  0
  2 45  1  0
  3 46  1  0
  3 47  1  0
  5 48  1  0
  5 49  1  0
  6 50  1  0
  6 51  1  0
  8 52  1  0
  9 53  1  0
 10 54  1  0
 11 55  1  0
 12 56  1  0
 15 57  1  0
 17 58  1  0
 18 59  1  0
 18 60  1  0
 19 61  1  0
 19 62  1  0
 19 63  1  0
 21 64  1  0
 22 65  1  0
 23 66  1  0
 25 67  1  0
 30 68  1  0
 31 69  1  0
 35 70  1  0
 36 71  1  0
 37 72  1  0
M  END
$$$$
