
     RDKit          3D

 73 74  0  0  0  0  0  0  0  0999 V2000
   -1.5878   -3.6498    1.3598 C   0  0  0  0  0  0  0  0  0  0  0  0
   -1.5329   -2.8103    0.1257 C   0  0  0  0  0  0  0  0  0  0  0  0
   -0.4559   -2.7363   -0.5244 O   0  0  0  0  0  0  0  0  0  0  0  0
   -2.7087   -2.1313   -0.3380 N   0  0  0  0  0  0  0  0  0  0  0  0
   -2.6794   -1.2209   -1.4894 C   0  0  1  0  0  0  0  0  0  0  0  0
   -4.1026   -0.8420   -1.9347 C   0  0  0  0  0  0  0  0  0  0  0  0
   -4.8507   -2.0405   -2.4408 C   0  0  0  0  0  0  0  0  0  0  0  0
   -4.6031   -2.5444   -3.7531 N   0  0  0  0  0  0  0  0  0  0  0  0
   -5.6816   -2.6235   -1.6944 O   0  0  0  0  0  0  0  0  0  0  0  0
   -1.9085    0.0211   -1.1337 C   0  0  0  0  0  0  0  0  0  0  0  0
   -1.0728    0.4878   -1.9541 O   0  0  0  0  0  0  0  0  0  0  0  0
   -2.1411    0.6852    0.1168 N   0  0  0  0  0  0  0  0  0  0  0  0
   -1.1041    1.4773    0.7841 C   0  0  1  0  0  0  0  0  0  0  0  0
   -1.7559    2.7267    1.4209 C   0  0  0  0  0  0  0  0  0  0  0  0
   -0.5922    4.1307    1.6119 S   0  0  0  0  0  0  0  0  0  0  0  0
   -0.5843    4.5956   -0.1238 C   0  0  0  0  0  0  0  0  0  0  0  0
    0.4630    4.1816   -0.9581 C   0  0  0  0  0  0  0  0  0  0  0  0
    0.4689    4.5449   -2.3083 C   0  0  0  0  0  0  0  0  0  0  0  0
   -0.5637    5.3334   -2.8253 C   0  0  0  0  0  0  0  0  0  0  0  0
   -1.6007    5.7628   -1.9910 C   0  0  0  0  0  0  0  0  0  0  0  0
   -1.6092    5.3990   -0.6406 C   0  0  0  0  0  0  0  0  0  0  0  0
   -0.3563    0.5683    1.7948 C   0  0  2  0  0  0  0  0  0  0  0  0
   -1.2248    0.1391    2.8146 O   0  0  0  0  0  0  0  0  0  0  0  0
    0.8651    1.2571    2.4281 C   0  0  0  0  0  0  0  0  0  0  0  0
    1.7635    0.2443    3.1079 C   0  0  0  0  0  0  0  0  0  0  0  0
    1.6167    0.0449    4.4934 C   0  0  0  0  0  0  0  0  0  0  0  0
    2.3473   -0.9438    5.1535 C   0  0  0  0  0  0  0  0  0  0  0  0
    3.2235   -1.7590    4.4401 C   0  0  0  0  0  0  0  0  0  0  0  0
    3.3759   -1.5864    3.0640 C   0  0  0  0  0  0  0  0  0  0  0  0
    2.6588   -0.5881    2.3821 C   0  0  0  0  0  0  0  0  0  0  0  0
    2.8701   -0.4515    0.9239 C   0  0  0  0  0  0  0  0  0  0  0  0
    3.1418    0.6789    0.4394 O   0  0  0  0  0  0  0  0  0  0  0  0
    2.8079   -1.6151    0.0778 N   0  0  0  0  0  0  0  0  0  0  0  0
    3.1482   -1.6360   -1.3587 C   0  0  0  0  0  0  0  0  0  0  0  0
    3.0129   -3.0794   -1.8860 C   0  0  0  0  0  0  0  0  0  0  0  0
    2.1810   -0.7339   -2.1490 C   0  0  0  0  0  0  0  0  0  0  0  0
    4.6039   -1.1750   -1.5695 C   0  0  0  0  0  0  0  0  0  0  0  0
   -0.5790   -3.7224    1.8193 H   0  0  0  0  0  0  0  0  0  0  0  0
   -1.9451   -4.6673    1.0986 H   0  0  0  0  0  0  0  0  0  0  0  0
   -2.2811   -3.1973    2.0992 H   0  0  0  0  0  0  0  0  0  0  0  0
   -3.5967   -2.2569    0.1995 H   0  0  0  0  0  0  0  0  0  0  0  0
   -2.1710   -1.7309   -2.3390 H   0  0  0  0  0  0  0  0  0  0  0  0
   -4.0503   -0.0885   -2.7510 H   0  0  0  0  0  0  0  0  0  0  0  0
   -4.6602   -0.3810   -1.0895 H   0  0  0  0  0  0  0  0  0  0  0  0
   -5.1145   -3.3861   -4.0998 H   0  0  0  0  0  0  0  0  0  0  0  0
   -3.9079   -2.0803   -4.3789 H   0  0  0  0  0  0  0  0  0  0  0  0
   -2.9851    0.4141    0.6711 H   0  0  0  0  0  0  0  0  0  0  0  0
   -0.3704    1.8106    0.0235 H   0  0  0  0  0  0  0  0  0  0  0  0
   -2.1752    2.4787    2.4181 H   0  0  0  0  0  0  0  0  0  0  0  0
   -2.6096    3.0673    0.7954 H   0  0  0  0  0  0  0  0  0  0  0  0
    1.2697    3.5769   -0.5630 H   0  0  0  0  0  0  0  0  0  0  0  0
    1.2744    4.2175   -2.9528 H   0  0  0  0  0  0  0  0  0  0  0  0
   -0.5582    5.6149   -3.8704 H   0  0  0  0  0  0  0  0  0  0  0  0
   -2.3971    6.3771   -2.3906 H   0  0  0  0  0  0  0  0  0  0  0  0
   -2.4149    5.7341    0.0001 H   0  0  0  0  0  0  0  0  0  0  0  0
    0.0167   -0.3146    1.2213 H   0  0  0  0  0  0  0  0  0  0  0  0
   -1.6899   -0.6723    2.4825 H   0  0  0  0  0  0  0  0  0  0  0  0
    0.5186    2.0073    3.1715 H   0  0  0  0  0  0  0  0  0  0  0  0
    1.4311    1.8280    1.6669 H   0  0  0  0  0  0  0  0  0  0  0  0
    0.9222    0.6486    5.0647 H   0  0  0  0  0  0  0  0  0  0  0  0
    2.2255   -1.0849    6.2197 H   0  0  0  0  0  0  0  0  0  0  0  0
    3.7856   -2.5280    4.9541 H   0  0  0  0  0  0  0  0  0  0  0  0
    4.0672   -2.2273    2.5299 H   0  0  0  0  0  0  0  0  0  0  0  0
    2.5008   -2.5073    0.5296 H   0  0  0  0  0  0  0  0  0  0  0  0
    3.6967   -3.7596   -1.3336 H   0  0  0  0  0  0  0  0  0  0  0  0
    3.2638   -3.1334   -2.9677 H   0  0  0  0  0  0  0  0  0  0  0  0
    1.9734   -3.4480   -1.7509 H   0  0  0  0  0  0  0  0  0  0  0  0
    2.2872    0.3320   -1.8632 H   0  0  0  0  0  0  0  0  0  0  0  0
    2.3786   -0.8104   -3.2401 H   0  0  0  0  0  0  0  0  0  0  0  0
    1.1319   -1.0427   -1.9609 H   0  0  0  0  0  0  0  0  0  0  0  0
    5.2927   -1.7772   -0.9388 H   0  0  0  0  0  0  0  0  0  0  0  0
    4.7352   -0.1057   -1.3073 H   0  0  0  0  0  0  0  0  0  0  0  0
    4.9027   -1.2965   -2.6333 H   0  0  0  0  0  0  0  0  0  0  0  0
  1  2  1  0
  2  3  2  0
  2  4  1  0
  4  5  1  0
  5  6  1  0
  6  7  1  0
  7  8  1  0
  7  9  2  0
  5 10  1  0
 10 11  2  0
 10 12  1  0
 12 13  1  0
 13 14  1  0
 14 15  1  0
 15 16  1  0
 16 17  2  0
 17 18  1  0
 18 19  2  0
 19 20  1  0
 20 21  2  0
 13 22  1  0
 22 23  1  0
 22 24  1  0
 24 25  1  0
 25 26  2  0
 26 27  1  0
 27 28  2  0
 28 29  1  0
 29 30  2  0
 30 31  1  0
 31 32  2  0
 31 33  1  0
 33 34  1  0
 34 35  1  0
 34 36  1  0
 34 37  1  0
 21 16  1  0
 30 25  1  0
  1 38  1  0
  1 39  1  0
  1 40  1  0
  4 41  1  0
  5 42  1  6
  6 43  1  0
  6 44  1  0
  8 45  1  0
  8 46  1  0
 12 47  1  0
 13 48  1  6
 14 49  1  0
 14 50  1  0
 17 51  1  0
 18 52  1  0
 19 53  1  0
 20 54  1  0
 21 55  1  0
 22 56  1  6
 23 57  1  0
 24 58  1  0
 24 59  1  0
 26 60  1  0
 27 61  1  0
 28 62  1  0
 29 63  1  0
 33 64  1  0
 35 65  1  0
 35 66  1  0
 35 67  1  0
 36 68  1  0
 36 69  1  0
 36 70  1  0
 37 71  1  0
 37 72  1  0
 37 73  1  0
M  END
$$$$
