
     RDKit          3D

 63 66  0  0  0  0  0  0  0  0999 V2000
   -2.2969   -3.4791    3.2870 C   0  0  0  0  0  0  0  0  0  0  0  0
   -2.3084   -2.0773    2.6747 C   0  0  0  0  0  0  0  0  0  0  0  0
   -1.2684   -1.9324    1.5368 C   0  0  0  0  0  0  0  0  0  0  0  0
    0.1522   -1.9209    2.0689 C   0  0  0  0  0  0  0  0  0  0  0  0
    1.0495   -2.9417    1.7083 C   0  0  0  0  0  0  0  0  0  0  0  0
    2.3877   -2.8786    2.1035 C   0  0  0  0  0  0  0  0  0  0  0  0
    2.8485   -1.7915    2.8482 C   0  0  0  0  0  0  0  0  0  0  0  0
    1.9638   -0.7726    3.2276 C   0  0  0  0  0  0  0  0  0  0  0  0
    2.4403    0.3873    3.9163 N   0  0  0  0  0  0  0  0  0  0  0  0
    3.7317    1.3192    3.2367 S   0  0  0  0  0  0  0  0  0  0  0  0
    3.7059    2.7088    3.8076 O   0  0  0  0  0  0  0  0  0  0  0  0
    5.0466    0.6749    3.5763 O   0  0  0  0  0  0  0  0  0  0  0  0
    3.5031    1.4107    1.4919 C   0  0  0  0  0  0  0  0  0  0  0  0
    2.2918    1.8960    0.9788 C   0  0  0  0  0  0  0  0  0  0  0  0
    2.0771    1.9362   -0.4020 C   0  0  0  0  0  0  0  0  0  0  0  0
    3.0713    1.4868   -1.2795 C   0  0  0  0  0  0  0  0  0  0  0  0
    2.8526    1.5307   -2.7014 C   0  0  0  0  0  0  0  0  0  0  0  0
    2.6776    1.5663   -3.8448 N   0  0  0  0  0  0  0  0  0  0  0  0
    4.2811    0.9976   -0.7698 C   0  0  0  0  0  0  0  0  0  0  0  0
    4.4964    0.9586    0.6117 C   0  0  0  0  0  0  0  0  0  0  0  0
    0.6163   -0.8519    2.8568 C   0  0  0  0  0  0  0  0  0  0  0  0
   -1.4724   -0.7328    0.6000 C   0  0  0  0  0  0  0  0  0  0  0  0
   -0.9929   -0.8176   -0.7256 C   0  0  0  0  0  0  0  0  0  0  0  0
   -0.4442   -2.0320   -1.1571 O   0  0  0  0  0  0  0  0  0  0  0  0
   -1.0720    0.3060   -1.5834 C   0  0  0  0  0  0  0  0  0  0  0  0
   -0.5778    0.2335   -3.0156 C   0  0  0  0  0  0  0  0  0  0  0  0
   -1.6336   -0.3518   -3.9639 C   0  0  0  0  0  0  0  0  0  0  0  0
   -3.0185    0.3110   -3.8574 C   0  0  0  0  0  0  0  0  0  0  0  0
   -2.9949    1.8382   -4.0773 C   0  0  0  0  0  0  0  0  0  0  0  0
   -3.1642    2.6489   -2.7786 C   0  0  0  0  0  0  0  0  0  0  0  0
   -1.8997    2.7259   -1.9087 C   0  0  0  0  0  0  0  0  0  0  0  0
   -1.6845    1.4794   -1.0825 C   0  0  0  0  0  0  0  0  0  0  0  0
   -2.1125    1.5170    0.1726 O   0  0  0  0  0  0  0  0  0  0  0  0
   -2.0168    0.5022    1.0179 C   0  0  0  0  0  0  0  0  0  0  0  0
   -2.4219    0.6742    2.1962 O   0  0  0  0  0  0  0  0  0  0  0  0
   -3.0596   -3.5387    4.0918 H   0  0  0  0  0  0  0  0  0  0  0  0
   -2.5378   -4.2421    2.5165 H   0  0  0  0  0  0  0  0  0  0  0  0
   -1.3022   -3.7032    3.7271 H   0  0  0  0  0  0  0  0  0  0  0  0
   -3.3267   -1.8864    2.2709 H   0  0  0  0  0  0  0  0  0  0  0  0
   -2.1116   -1.3525    3.4924 H   0  0  0  0  0  0  0  0  0  0  0  0
   -1.4112   -2.8428    0.9126 H   0  0  0  0  0  0  0  0  0  0  0  0
    0.7199   -3.7770    1.1032 H   0  0  0  0  0  0  0  0  0  0  0  0
    3.0739   -3.6637    1.8134 H   0  0  0  0  0  0  0  0  0  0  0  0
    3.8928   -1.7429    3.1271 H   0  0  0  0  0  0  0  0  0  0  0  0
    1.8013    0.8737    4.5841 H   0  0  0  0  0  0  0  0  0  0  0  0
    1.5115    2.2350    1.6488 H   0  0  0  0  0  0  0  0  0  0  0  0
    1.1386    2.3177   -0.7844 H   0  0  0  0  0  0  0  0  0  0  0  0
    5.0562    0.6450   -1.4397 H   0  0  0  0  0  0  0  0  0  0  0  0
    5.4328    0.5705    0.9904 H   0  0  0  0  0  0  0  0  0  0  0  0
   -0.0517   -0.0467    3.1311 H   0  0  0  0  0  0  0  0  0  0  0  0
   -0.1417   -2.2223   -2.1015 H   0  0  0  0  0  0  0  0  0  0  0  0
    0.3519   -0.3671   -3.0777 H   0  0  0  0  0  0  0  0  0  0  0  0
   -0.2531    1.2193   -3.3927 H   0  0  0  0  0  0  0  0  0  0  0  0
   -1.7492   -1.4371   -3.7553 H   0  0  0  0  0  0  0  0  0  0  0  0
   -1.2645   -0.2578   -5.0085 H   0  0  0  0  0  0  0  0  0  0  0  0
   -3.4914    0.0497   -2.8857 H   0  0  0  0  0  0  0  0  0  0  0  0
   -3.6619   -0.1471   -4.6404 H   0  0  0  0  0  0  0  0  0  0  0  0
   -3.8528    2.0975   -4.7361 H   0  0  0  0  0  0  0  0  0  0  0  0
   -2.0826    2.1616   -4.6237 H   0  0  0  0  0  0  0  0  0  0  0  0
   -3.4294    3.6887   -3.0705 H   0  0  0  0  0  0  0  0  0  0  0  0
   -4.0207    2.2610   -2.1842 H   0  0  0  0  0  0  0  0  0  0  0  0
   -2.0353    3.5747   -1.2030 H   0  0  0  0  0  0  0  0  0  0  0  0
   -1.0094    3.0037   -2.5064 H   0  0  0  0  0  0  0  0  0  0  0  0
  1  2  1  0
  2  3  1  0
  3  4  1  0
  4  5  2  0
  5  6  1  0
  6  7  2  0
  7  8  1  0
  8  9  1  0
  9 10  1  0
 10 11  2  0
 10 12  2  0
 10 13  1  0
 13 14  2  0
 14 15  1  0
 15 16  2  0
 16 17  1  0
 17 18  3  0
 16 19  1  0
 19 20  2  0
  8 21  2  0
  3 22  1  0
 22 23  2  0
 23 24  1  0
 23 25  1  0
 25 26  1  0
 26 27  1  0
 27 28  1  0
 28 29  1  0
 29 30  1  0
 30 31  1  0
 31 32  1  0
 32 33  1  0
 33 34  1  0
 34 35  2  0
 20 13  1  0
 21  4  1  0
 32 25  2  0
 34 22  1  0
  1 36  1  0
  1 37  1  0
  1 38  1  0
  2 39  1  0
  2 40  1  0
  3 41  1  0
  5 42  1  0
  6 43  1  0
  7 44  1  0
  9 45  1  0
 14 46  1  0
 15 47  1  0
 19 48  1  0
 20 49  1  0
 21 50  1  0
 24 51  1  0
 26 52  1  0
 26 53  1  0
 27 54  1  0
 27 55  1  0
 28 56  1  0
 28 57  1  0
 29 58  1  0
 29 59  1  0
 30 60  1  0
 30 61  1  0
 31 62  1  0
 31 63  1  0
M  END
$$$$
