
     RDKit          3D

 63 66  0  0  0  0  0  0  0  0999 V2000
   -0.0735   -3.1738   -1.9919 C   0  0  0  0  0  0  0  0  0  0  0  0
   -0.5815   -3.5033   -0.5835 C   0  0  0  0  0  0  0  0  0  0  0  0
   -0.6192   -2.3004    0.3959 C   0  0  0  0  0  0  0  0  0  0  0  0
    0.7127   -1.8814    1.0213 C   0  0  0  0  0  0  0  0  0  0  0  0
    0.6937   -0.8883    2.0186 C   0  0  0  0  0  0  0  0  0  0  0  0
    1.8756   -0.4571    2.6206 C   0  0  0  0  0  0  0  0  0  0  0  0
    3.0978   -1.0115    2.2441 C   0  0  0  0  0  0  0  0  0  0  0  0
    3.1482   -2.0133    1.2607 C   0  0  0  0  0  0  0  0  0  0  0  0
    4.3954   -2.5963    0.8460 N   0  0  0  0  0  0  0  0  0  0  0  0
    5.9224   -1.7893    1.0140 S   0  0  0  0  0  0  0  0  0  0  0  0
    6.9451   -2.4753    0.1533 O   0  0  0  0  0  0  0  0  0  0  0  0
    6.3612   -1.8611    2.4500 O   0  0  0  0  0  0  0  0  0  0  0  0
    5.7725   -0.1147    0.4890 C   0  0  0  0  0  0  0  0  0  0  0  0
    5.0095    0.1944   -0.6456 C   0  0  0  0  0  0  0  0  0  0  0  0
    4.8655    1.5230   -1.0563 C   0  0  0  0  0  0  0  0  0  0  0  0
    5.4885    2.5510   -0.3376 C   0  0  0  0  0  0  0  0  0  0  0  0
    5.3391    3.9192   -0.7591 C   0  0  0  0  0  0  0  0  0  0  0  0
    5.2190    5.0191   -1.0981 N   0  0  0  0  0  0  0  0  0  0  0  0
    6.2573    2.2442    0.7925 C   0  0  0  0  0  0  0  0  0  0  0  0
    6.3995    0.9152    1.2043 C   0  0  0  0  0  0  0  0  0  0  0  0
    1.9537   -2.4566    0.6709 C   0  0  0  0  0  0  0  0  0  0  0  0
   -1.3948   -1.1192   -0.2015 C   0  0  0  0  0  0  0  0  0  0  0  0
   -2.7937   -1.0395   -0.0436 C   0  0  0  0  0  0  0  0  0  0  0  0
   -3.4346   -2.0118    0.7335 O   0  0  0  0  0  0  0  0  0  0  0  0
   -3.5120    0.0195   -0.6510 C   0  0  0  0  0  0  0  0  0  0  0  0
   -5.0155    0.1398   -0.5034 C   0  0  0  0  0  0  0  0  0  0  0  0
   -5.3640    0.9873    0.7352 C   0  0  0  0  0  0  0  0  0  0  0  0
   -6.0913    2.3071    0.4206 C   0  0  0  0  0  0  0  0  0  0  0  0
   -5.5369    3.1471   -0.7501 C   0  0  0  0  0  0  0  0  0  0  0  0
   -3.9967    3.2142   -0.8529 C   0  0  0  0  0  0  0  0  0  0  0  0
   -3.4117    2.2531   -1.9148 C   0  0  0  0  0  0  0  0  0  0  0  0
   -2.7730    1.0243   -1.3165 C   0  0  0  0  0  0  0  0  0  0  0  0
   -1.4570    0.9049   -1.4442 O   0  0  0  0  0  0  0  0  0  0  0  0
   -0.7592   -0.1071   -0.9516 C   0  0  0  0  0  0  0  0  0  0  0  0
    0.4820   -0.1397   -1.1634 O   0  0  0  0  0  0  0  0  0  0  0  0
   -0.8054   -2.5326   -2.5265 H   0  0  0  0  0  0  0  0  0  0  0  0
    0.0422   -4.1148   -2.5696 H   0  0  0  0  0  0  0  0  0  0  0  0
    0.9062   -2.6575   -1.9661 H   0  0  0  0  0  0  0  0  0  0  0  0
    0.0201   -4.3301   -0.1491 H   0  0  0  0  0  0  0  0  0  0  0  0
   -1.6143   -3.9028   -0.6877 H   0  0  0  0  0  0  0  0  0  0  0  0
   -1.1925   -2.6777    1.2709 H   0  0  0  0  0  0  0  0  0  0  0  0
   -0.2437   -0.4414    2.3269 H   0  0  0  0  0  0  0  0  0  0  0  0
    1.8435    0.3106    3.3831 H   0  0  0  0  0  0  0  0  0  0  0  0
    3.9960   -0.6628    2.7335 H   0  0  0  0  0  0  0  0  0  0  0  0
    4.3827   -3.4706    0.2744 H   0  0  0  0  0  0  0  0  0  0  0  0
    4.5213   -0.5919   -1.2074 H   0  0  0  0  0  0  0  0  0  0  0  0
    4.2686    1.7481   -1.9320 H   0  0  0  0  0  0  0  0  0  0  0  0
    6.7446    3.0313    1.3554 H   0  0  0  0  0  0  0  0  0  0  0  0
    6.9944    0.6926    2.0805 H   0  0  0  0  0  0  0  0  0  0  0  0
    2.0172   -3.2423   -0.0655 H   0  0  0  0  0  0  0  0  0  0  0  0
   -4.3959   -1.9552    1.0388 H   0  0  0  0  0  0  0  0  0  0  0  0
   -5.4906   -0.8588   -0.4311 H   0  0  0  0  0  0  0  0  0  0  0  0
   -5.4670    0.5493   -1.4280 H   0  0  0  0  0  0  0  0  0  0  0  0
   -6.0197    0.3870    1.4032 H   0  0  0  0  0  0  0  0  0  0  0  0
   -4.4561    1.2138    1.3380 H   0  0  0  0  0  0  0  0  0  0  0  0
   -7.1589    2.0811    0.2069 H   0  0  0  0  0  0  0  0  0  0  0  0
   -6.0768    2.9304    1.3416 H   0  0  0  0  0  0  0  0  0  0  0  0
   -5.9192    4.1828   -0.6130 H   0  0  0  0  0  0  0  0  0  0  0  0
   -5.9886    2.8029   -1.7049 H   0  0  0  0  0  0  0  0  0  0  0  0
   -3.5165    3.0712    0.1394 H   0  0  0  0  0  0  0  0  0  0  0  0
   -3.7330    4.2495   -1.1639 H   0  0  0  0  0  0  0  0  0  0  0  0
   -2.6257    2.8048   -2.4766 H   0  0  0  0  0  0  0  0  0  0  0  0
   -4.1570    1.9590   -2.6829 H   0  0  0  0  0  0  0  0  0  0  0  0
  1  2  1  0
  2  3  1  0
  3  4  1  0
  4  5  2  0
  5  6  1  0
  6  7  2  0
  7  8  1  0
  8  9  1  0
  9 10  1  0
 10 11  2  0
 10 12  2  0
 10 13  1  0
 13 14  2  0
 14 15  1  0
 15 16  2  0
 16 17  1  0
 17 18  3  0
 16 19  1  0
 19 20  2  0
  8 21  2  0
  3 22  1  0
 22 23  2  0
 23 24  1  0
 23 25  1  0
 25 26  1  0
 26 27  1  0
 27 28  1  0
 28 29  1  0
 29 30  1  0
 30 31  1  0
 31 32  1  0
 32 33  1  0
 33 34  1  0
 34 35  2  0
 20 13  1  0
 21  4  1  0
 32 25  2  0
 34 22  1  0
  1 36  1  0
  1 37  1  0
  1 38  1  0
  2 39  1  0
  2 40  1  0
  3 41  1  0
  5 42  1  0
  6 43  1  0
  7 44  1  0
  9 45  1  0
 14 46  1  0
 15 47  1  0
 19 48  1  0
 20 49  1  0
 21 50  1  0
 24 51  1  0
 26 52  1  0
 26 53  1  0
 27 54  1  0
 27 55  1  0
 28 56  1  0
 28 57  1  0
 29 58  1  0
 29 59  1  0
 30 60  1  0
 30 61  1  0
 31 62  1  0
 31 63  1  0
M  END
$$$$
