
     RDKit          3D

 72 75  0  0  0  0  0  0  0  0999 V2000
   -5.8328   -1.3158   -2.7959 C   0  0  0  0  0  0  0  0  0  0  0  0
   -4.4306   -1.0798   -2.2419 C   0  0  0  0  0  0  0  0  0  0  0  0
   -4.3871    0.1823   -1.3663 C   0  0  0  0  0  0  0  0  0  0  0  0
   -2.9816    0.4384   -0.7802 C   0  0  0  0  0  0  0  0  0  0  0  0
   -2.9544    1.7435    0.0694 C   0  0  0  0  0  0  0  0  0  0  0  0
   -3.2858    1.5772    1.5664 C   0  0  0  0  0  0  0  0  0  0  0  0
   -4.7037    1.1354    1.8125 C   0  0  0  0  0  0  0  0  0  0  0  0
   -5.7694    2.0247    1.5934 C   0  0  0  0  0  0  0  0  0  0  0  0
   -7.0883    1.6062    1.7939 C   0  0  0  0  0  0  0  0  0  0  0  0
   -7.3527    0.3003    2.2154 C   0  0  0  0  0  0  0  0  0  0  0  0
   -6.2983   -0.5892    2.4392 C   0  0  0  0  0  0  0  0  0  0  0  0
   -4.9777   -0.1753    2.2407 C   0  0  0  0  0  0  0  0  0  0  0  0
   -2.0635    0.5952   -1.8675 O   0  0  0  0  0  0  0  0  0  0  0  0
   -0.6923    0.3262   -1.7499 C   0  0  0  0  0  0  0  0  0  0  0  0
    0.1650    0.8972   -2.6808 O   0  0  0  0  0  0  0  0  0  0  0  0
   -0.2341   -0.4676   -0.7578 C   0  0  0  0  0  0  0  0  0  0  0  0
    1.2491   -0.7513   -0.4861 C   0  0  0  0  0  0  0  0  0  0  0  0
    2.1566   -0.9400   -1.7400 C   0  0  0  0  0  0  0  0  0  0  0  0
    3.0803    0.2404   -2.0720 C   0  0  0  0  0  0  0  0  0  0  0  0
    1.8348    0.1934    0.5542 C   0  0  0  0  0  0  0  0  0  0  0  0
    1.4950    1.5592    0.5931 C   0  0  0  0  0  0  0  0  0  0  0  0
    2.0917    2.4092    1.5260 C   0  0  0  0  0  0  0  0  0  0  0  0
    3.0587    1.9196    2.4056 C   0  0  0  0  0  0  0  0  0  0  0  0
    3.4446    0.5732    2.3572 C   0  0  0  0  0  0  0  0  0  0  0  0
    4.4901    0.1065    3.2261 N   0  0  0  0  0  0  0  0  0  0  0  0
    5.4761   -1.2737    2.8574 S   0  0  0  0  0  0  0  0  0  0  0  0
    6.7411   -1.2150    3.6661 O   0  0  0  0  0  0  0  0  0  0  0  0
    4.7262   -2.5264    3.2151 O   0  0  0  0  0  0  0  0  0  0  0  0
    5.8977   -1.2604    1.1460 C   0  0  0  0  0  0  0  0  0  0  0  0
    5.5983   -2.3574    0.3247 C   0  0  0  0  0  0  0  0  0  0  0  0
    5.8866   -2.3110   -1.0426 C   0  0  0  0  0  0  0  0  0  0  0  0
    6.4792   -1.1696   -1.5971 C   0  0  0  0  0  0  0  0  0  0  0  0
    6.7604   -1.1157   -3.0075 C   0  0  0  0  0  0  0  0  0  0  0  0
    6.9855   -1.0720   -4.1417 N   0  0  0  0  0  0  0  0  0  0  0  0
    6.7852   -0.0758   -0.7776 C   0  0  0  0  0  0  0  0  0  0  0  0
    6.4932   -0.1210    0.5890 C   0  0  0  0  0  0  0  0  0  0  0  0
    2.8096   -0.2883    1.4452 C   0  0  0  0  0  0  0  0  0  0  0  0
   -1.2496   -1.0335    0.1623 C   0  0  0  0  0  0  0  0  0  0  0  0
   -0.9259   -1.8486    1.0663 O   0  0  0  0  0  0  0  0  0  0  0  0
   -2.5896   -0.6783    0.0185 O   0  0  0  0  0  0  0  0  0  0  0  0
   -5.8350   -2.2312   -3.4245 H   0  0  0  0  0  0  0  0  0  0  0  0
   -6.1506   -0.4545   -3.4214 H   0  0  0  0  0  0  0  0  0  0  0  0
   -6.5577   -1.4536   -1.9654 H   0  0  0  0  0  0  0  0  0  0  0  0
   -4.1316   -1.9670   -1.6429 H   0  0  0  0  0  0  0  0  0  0  0  0
   -3.7242   -0.9764   -3.0937 H   0  0  0  0  0  0  0  0  0  0  0  0
   -5.1278    0.0655   -0.5514 H   0  0  0  0  0  0  0  0  0  0  0  0
   -4.6921    1.0574   -1.9817 H   0  0  0  0  0  0  0  0  0  0  0  0
   -3.6202    2.5127   -0.3795 H   0  0  0  0  0  0  0  0  0  0  0  0
   -1.9285    2.1704    0.0244 H   0  0  0  0  0  0  0  0  0  0  0  0
   -2.5640    0.8768    2.0397 H   0  0  0  0  0  0  0  0  0  0  0  0
   -3.1335    2.5571    2.0689 H   0  0  0  0  0  0  0  0  0  0  0  0
   -5.5779    3.0377    1.2619 H   0  0  0  0  0  0  0  0  0  0  0  0
   -7.9058    2.2940    1.6204 H   0  0  0  0  0  0  0  0  0  0  0  0
   -8.3744   -0.0224    2.3683 H   0  0  0  0  0  0  0  0  0  0  0  0
   -6.5045   -1.6007    2.7643 H   0  0  0  0  0  0  0  0  0  0  0  0
   -4.1719   -0.8783    2.4110 H   0  0  0  0  0  0  0  0  0  0  0  0
   -0.1941    1.4914   -3.4177 H   0  0  0  0  0  0  0  0  0  0  0  0
    1.2550   -1.7617   -0.0195 H   0  0  0  0  0  0  0  0  0  0  0  0
    1.5442   -1.2008   -2.6291 H   0  0  0  0  0  0  0  0  0  0  0  0
    2.8186   -1.8187   -1.5700 H   0  0  0  0  0  0  0  0  0  0  0  0
    3.5857    0.0528   -3.0427 H   0  0  0  0  0  0  0  0  0  0  0  0
    3.8634    0.3452   -1.2924 H   0  0  0  0  0  0  0  0  0  0  0  0
    2.5240    1.1951   -2.1413 H   0  0  0  0  0  0  0  0  0  0  0  0
    0.7747    1.9742   -0.0976 H   0  0  0  0  0  0  0  0  0  0  0  0
    1.8165    3.4556    1.5554 H   0  0  0  0  0  0  0  0  0  0  0  0
    3.5281    2.5970    3.1079 H   0  0  0  0  0  0  0  0  0  0  0  0
    4.7929    0.7077    4.0250 H   0  0  0  0  0  0  0  0  0  0  0  0
    5.1294   -3.2417    0.7359 H   0  0  0  0  0  0  0  0  0  0  0  0
    5.6405   -3.1607   -1.6680 H   0  0  0  0  0  0  0  0  0  0  0  0
    7.2389    0.8144   -1.1964 H   0  0  0  0  0  0  0  0  0  0  0  0
    6.7193    0.7358    1.2112 H   0  0  0  0  0  0  0  0  0  0  0  0
    3.0752   -1.3356    1.4146 H   0  0  0  0  0  0  0  0  0  0  0  0
  1  2  1  0
  2  3  1  0
  3  4  1  0
  4  5  1  0
  5  6  1  0
  6  7  1  0
  7  8  2  0
  8  9  1  0
  9 10  2  0
 10 11  1  0
 11 12  2  0
  4 13  1  0
 13 14  1  0
 14 15  1  0
 14 16  2  0
 16 17  1  0
 17 18  1  0
 18 19  1  0
 17 20  1  0
 20 21  2  0
 21 22  1  0
 22 23  2  0
 23 24  1  0
 24 25  1  0
 25 26  1  0
 26 27  2  0
 26 28  2  0
 26 29  1  0
 29 30  2  0
 30 31  1  0
 31 32  2  0
 32 33  1  0
 33 34  3  0
 32 35  1  0
 35 36  2  0
 24 37  2  0
 16 38  1  0
 38 39  2  0
 38 40  1  0
 12  7  1  0
 36 29  1  0
 37 20  1  0
 40  4  1  0
  1 41  1  0
  1 42  1  0
  1 43  1  0
  2 44  1  0
  2 45  1  0
  3 46  1  0
  3 47  1  0
  5 48  1  0
  5 49  1  0
  6 50  1  0
  6 51  1  0
  8 52  1  0
  9 53  1  0
 10 54  1  0
 11 55  1  0
 12 56  1  0
 15 57  1  0
 17 58  1  0
 18 59  1  0
 18 60  1  0
 19 61  1  0
 19 62  1  0
 19 63  1  0
 21 64  1  0
 22 65  1  0
 23 66  1  0
 25 67  1  0
 30 68  1  0
 31 69  1  0
 35 70  1  0
 36 71  1  0
 37 72  1  0
M  END
$$$$
