
     RDKit          3D

 73 74  0  0  0  0  0  0  0  0999 V2000
   -6.9713   -1.9796   -0.7258 C   0  0  0  0  0  0  0  0  0  0  0  0
   -5.5498   -1.8377   -0.2897 C   0  0  0  0  0  0  0  0  0  0  0  0
   -4.6507   -2.4867   -0.8887 O   0  0  0  0  0  0  0  0  0  0  0  0
   -5.2231   -0.9540    0.7966 N   0  0  0  0  0  0  0  0  0  0  0  0
   -3.8788   -0.7785    1.3697 C   0  0  1  0  0  0  0  0  0  0  0  0
   -3.2864   -2.1074    1.8774 C   0  0  0  0  0  0  0  0  0  0  0  0
   -4.1830   -2.7518    2.8943 C   0  0  0  0  0  0  0  0  0  0  0  0
   -5.0612   -3.8134    2.5202 N   0  0  0  0  0  0  0  0  0  0  0  0
   -4.1830   -2.3317    4.0822 O   0  0  0  0  0  0  0  0  0  0  0  0
   -2.9397   -0.0986    0.4031 C   0  0  0  0  0  0  0  0  0  0  0  0
   -3.1889   -0.0903   -0.8334 O   0  0  0  0  0  0  0  0  0  0  0  0
   -1.7446    0.5239    0.8983 N   0  0  0  0  0  0  0  0  0  0  0  0
   -0.7108    1.0654    0.0106 C   0  0  1  0  0  0  0  0  0  0  0  0
   -0.0677    2.3125    0.6544 C   0  0  0  0  0  0  0  0  0  0  0  0
   -1.3130    3.5972    1.0467 S   0  0  0  0  0  0  0  0  0  0  0  0
   -1.5310    4.1532   -0.6468 C   0  0  0  0  0  0  0  0  0  0  0  0
   -2.6044    3.6750   -1.4099 C   0  0  0  0  0  0  0  0  0  0  0  0
   -2.7762    4.1107   -2.7274 C   0  0  0  0  0  0  0  0  0  0  0  0
   -1.8825    5.0325   -3.2818 C   0  0  0  0  0  0  0  0  0  0  0  0
   -0.8183    5.5216   -2.5175 C   0  0  0  0  0  0  0  0  0  0  0  0
   -0.6445    5.0864   -1.1998 C   0  0  0  0  0  0  0  0  0  0  0  0
    0.3063   -0.0543   -0.3300 C   0  0  2  0  0  0  0  0  0  0  0  0
    0.9436   -0.5380    0.8275 O   0  0  0  0  0  0  0  0  0  0  0  0
    1.3265    0.3648   -1.4139 C   0  0  0  0  0  0  0  0  0  0  0  0
    2.1276   -0.8271   -1.8972 C   0  0  0  0  0  0  0  0  0  0  0  0
    1.5600   -1.6454   -2.8916 C   0  0  0  0  0  0  0  0  0  0  0  0
    2.2002   -2.8138   -3.3065 C   0  0  0  0  0  0  0  0  0  0  0  0
    3.4092   -3.1920   -2.7259 C   0  0  0  0  0  0  0  0  0  0  0  0
    3.9862   -2.3995   -1.7330 C   0  0  0  0  0  0  0  0  0  0  0  0
    3.3645   -1.2116   -1.3126 C   0  0  0  0  0  0  0  0  0  0  0  0
    4.0392   -0.4064   -0.2740 C   0  0  0  0  0  0  0  0  0  0  0  0
    4.3137    0.8005   -0.5083 O   0  0  0  0  0  0  0  0  0  0  0  0
    4.4149   -1.0181    0.9741 N   0  0  0  0  0  0  0  0  0  0  0  0
    5.1350   -0.3384    2.0690 C   0  0  0  0  0  0  0  0  0  0  0  0
    4.3011    0.8417    2.6056 C   0  0  0  0  0  0  0  0  0  0  0  0
    5.3595   -1.3407    3.2199 C   0  0  0  0  0  0  0  0  0  0  0  0
    6.5096    0.1560    1.5775 C   0  0  0  0  0  0  0  0  0  0  0  0
   -7.0628   -2.7510   -1.5199 H   0  0  0  0  0  0  0  0  0  0  0  0
   -7.3360   -1.0089   -1.1211 H   0  0  0  0  0  0  0  0  0  0  0  0
   -7.5970   -2.2806    0.1403 H   0  0  0  0  0  0  0  0  0  0  0  0
   -6.0040   -0.4129    1.2326 H   0  0  0  0  0  0  0  0  0  0  0  0
   -3.9727   -0.1006    2.2479 H   0  0  0  0  0  0  0  0  0  0  0  0
   -3.0984   -2.8078    1.0375 H   0  0  0  0  0  0  0  0  0  0  0  0
   -2.3012   -1.9129    2.3548 H   0  0  0  0  0  0  0  0  0  0  0  0
   -5.6970   -4.2442    3.2275 H   0  0  0  0  0  0  0  0  0  0  0  0
   -5.0791   -4.1732    1.5404 H   0  0  0  0  0  0  0  0  0  0  0  0
   -1.5406    0.4640    1.9221 H   0  0  0  0  0  0  0  0  0  0  0  0
   -1.1782    1.3874   -0.9435 H   0  0  0  0  0  0  0  0  0  0  0  0
    0.4267    2.0364    1.6085 H   0  0  0  0  0  0  0  0  0  0  0  0
    0.7021    2.7512   -0.0129 H   0  0  0  0  0  0  0  0  0  0  0  0
   -3.3011    2.9633   -0.9852 H   0  0  0  0  0  0  0  0  0  0  0  0
   -3.6019    3.7353   -3.3178 H   0  0  0  0  0  0  0  0  0  0  0  0
   -2.0161    5.3695   -4.3016 H   0  0  0  0  0  0  0  0  0  0  0  0
   -0.1291    6.2378   -2.9459 H   0  0  0  0  0  0  0  0  0  0  0  0
    0.1813    5.4682   -0.6131 H   0  0  0  0  0  0  0  0  0  0  0  0
   -0.2857   -0.8969   -0.7519 H   0  0  0  0  0  0  0  0  0  0  0  0
    1.6061    0.1404    1.1157 H   0  0  0  0  0  0  0  0  0  0  0  0
    1.9870    1.1671   -1.0382 H   0  0  0  0  0  0  0  0  0  0  0  0
    0.7804    0.8057   -2.2770 H   0  0  0  0  0  0  0  0  0  0  0  0
    0.6075   -1.3845   -3.3370 H   0  0  0  0  0  0  0  0  0  0  0  0
    1.7517   -3.4333   -4.0724 H   0  0  0  0  0  0  0  0  0  0  0  0
    3.9011   -4.1016   -3.0457 H   0  0  0  0  0  0  0  0  0  0  0  0
    4.9305   -2.7070   -1.2995 H   0  0  0  0  0  0  0  0  0  0  0  0
    4.1372   -2.0181    1.1063 H   0  0  0  0  0  0  0  0  0  0  0  0
    4.8058    1.3112    3.4776 H   0  0  0  0  0  0  0  0  0  0  0  0
    4.1622    1.6276    1.8358 H   0  0  0  0  0  0  0  0  0  0  0  0
    3.2988    0.4891    2.9299 H   0  0  0  0  0  0  0  0  0  0  0  0
    4.3863   -1.7223    3.5980 H   0  0  0  0  0  0  0  0  0  0  0  0
    5.8993   -0.8619    4.0656 H   0  0  0  0  0  0  0  0  0  0  0  0
    5.9593   -2.2077    2.8676 H   0  0  0  0  0  0  0  0  0  0  0  0
    6.4074    0.9626    0.8236 H   0  0  0  0  0  0  0  0  0  0  0  0
    7.1041    0.5640    2.4235 H   0  0  0  0  0  0  0  0  0  0  0  0
    7.0778   -0.6818    1.1192 H   0  0  0  0  0  0  0  0  0  0  0  0
  1  2  1  0
  2  3  2  0
  2  4  1  0
  4  5  1  0
  5  6  1  0
  6  7  1  0
  7  8  1  0
  7  9  2  0
  5 10  1  0
 10 11  2  0
 10 12  1  0
 12 13  1  0
 13 14  1  0
 14 15  1  0
 15 16  1  0
 16 17  2  0
 17 18  1  0
 18 19  2  0
 19 20  1  0
 20 21  2  0
 13 22  1  0
 22 23  1  0
 22 24  1  0
 24 25  1  0
 25 26  2  0
 26 27  1  0
 27 28  2  0
 28 29  1  0
 29 30  2  0
 30 31  1  0
 31 32  2  0
 31 33  1  0
 33 34  1  0
 34 35  1  0
 34 36  1  0
 34 37  1  0
 21 16  1  0
 30 25  1  0
  1 38  1  0
  1 39  1  0
  1 40  1  0
  4 41  1  0
  5 42  1  1
  6 43  1  0
  6 44  1  0
  8 45  1  0
  8 46  1  0
 12 47  1  0
 13 48  1  6
 14 49  1  0
 14 50  1  0
 17 51  1  0
 18 52  1  0
 19 53  1  0
 20 54  1  0
 21 55  1  0
 22 56  1  6
 23 57  1  0
 24 58  1  0
 24 59  1  0
 26 60  1  0
 27 61  1  0
 28 62  1  0
 29 63  1  0
 33 64  1  0
 35 65  1  0
 35 66  1  0
 35 67  1  0
 36 68  1  0
 36 69  1  0
 36 70  1  0
 37 71  1  0
 37 72  1  0
 37 73  1  0
M  END
$$$$
