
     RDKit          3D

 79 82  0  0  0  0  0  0  0  0999 V2000
    1.4514    0.2116    1.5477 C   0  0  0  0  0  0  0  0  0  0  0  0
    0.9965    0.1395    0.0786 C   0  0  0  0  0  0  0  0  0  0  0  0
    0.1785    1.3956   -0.2809 C   0  0  0  0  0  0  0  0  0  0  0  0
    2.1583   -0.2031   -0.9455 C   0  0  0  0  0  0  0  0  0  0  0  0
    3.5001    0.5393   -0.6663 C   0  0  0  0  0  0  0  0  0  0  0  0
    3.4394    2.0705   -0.7954 C   0  0  0  0  0  0  0  0  0  0  0  0
    4.8265    2.6480   -0.9005 C   0  0  0  0  0  0  0  0  0  0  0  0
    5.4141    2.8568   -2.1590 C   0  0  0  0  0  0  0  0  0  0  0  0
    6.7149    3.3607   -2.2547 C   0  0  0  0  0  0  0  0  0  0  0  0
    7.4445    3.6503   -1.0970 C   0  0  0  0  0  0  0  0  0  0  0  0
    8.7394    4.1519   -1.2074 O   0  0  0  0  0  0  0  0  0  0  0  0
    6.8680    3.4306    0.1614 C   0  0  0  0  0  0  0  0  0  0  0  0
    5.5675    2.9269    0.2598 C   0  0  0  0  0  0  0  0  0  0  0  0
    2.4485   -1.7330   -0.9091 C   0  0  0  0  0  0  0  0  0  0  0  0
    1.3448   -2.5137   -1.5665 C   0  0  0  0  0  0  0  0  0  0  0  0
    1.2239   -3.7404   -1.3145 O   0  0  0  0  0  0  0  0  0  0  0  0
    0.4945   -1.8752   -2.5894 C   0  0  0  0  0  0  0  0  0  0  0  0
   -0.9339   -2.7440   -3.2694 S   0  0  0  0  0  0  0  0  0  0  0  0
   -2.0734   -2.0146   -2.0670 C   0  0  0  0  0  0  0  0  0  0  0  0
   -2.4723   -0.7020   -2.3611 C   0  0  0  0  0  0  0  0  0  0  0  0
   -3.0634    0.1170   -1.3966 C   0  0  0  0  0  0  0  0  0  0  0  0
   -3.4016    1.5447   -1.7330 C   0  0  0  0  0  0  0  0  0  0  0  0
   -3.2764   -0.3905   -0.1075 C   0  0  0  0  0  0  0  0  0  0  0  0
   -3.8191    0.4494    0.9252 N   0  0  0  0  0  0  0  0  0  0  0  0
   -3.2320    0.5483    2.2355 C   0  0  0  0  0  0  0  0  0  0  0  0
   -2.2575   -0.1912    2.5443 O   0  0  0  0  0  0  0  0  0  0  0  0
   -3.7472    1.5125    3.2359 C   0  0  0  0  0  0  0  0  0  0  0  0
   -3.5879    1.2574    4.6083 C   0  0  0  0  0  0  0  0  0  0  0  0
   -4.0657    2.1671    5.5527 C   0  0  0  0  0  0  0  0  0  0  0  0
   -4.6928    3.3353    5.1201 C   0  0  0  0  0  0  0  0  0  0  0  0
   -4.8274    3.5822    3.7909 N   0  0  0  0  0  0  0  0  0  0  0  0
   -4.3744    2.7110    2.8498 C   0  0  0  0  0  0  0  0  0  0  0  0
   -3.0101   -1.7403    0.1536 C   0  0  0  0  0  0  0  0  0  0  0  0
   -2.4687   -2.6105   -0.8249 C   0  0  0  0  0  0  0  0  0  0  0  0
   -2.4360   -4.1269   -0.4719 C   0  0  0  0  0  0  0  0  0  0  0  0
   -1.9947   -5.0631   -1.6195 C   0  0  0  0  0  0  0  0  0  0  0  0
   -1.4929   -4.3579    0.7297 C   0  0  0  0  0  0  0  0  0  0  0  0
   -3.8654   -4.5866   -0.0792 C   0  0  0  0  0  0  0  0  0  0  0  0
    0.7918   -0.6296   -2.9837 C   0  0  0  0  0  0  0  0  0  0  0  0
    0.1549   -0.0625   -4.0824 O   0  0  0  0  0  0  0  0  0  0  0  0
    1.7438    0.1240   -2.2814 O   0  0  0  0  0  0  0  0  0  0  0  0
    2.0799    1.1055    1.7343 H   0  0  0  0  0  0  0  0  0  0  0  0
    2.0205   -0.6947    1.8360 H   0  0  0  0  0  0  0  0  0  0  0  0
    0.5651    0.2746    2.2145 H   0  0  0  0  0  0  0  0  0  0  0  0
    0.2554   -0.6897    0.0385 H   0  0  0  0  0  0  0  0  0  0  0  0
    0.7720    2.3235   -0.2033 H   0  0  0  0  0  0  0  0  0  0  0  0
   -0.2385    1.3231   -1.3055 H   0  0  0  0  0  0  0  0  0  0  0  0
   -0.6846    1.4911    0.4126 H   0  0  0  0  0  0  0  0  0  0  0  0
    3.8944    0.2691    0.3372 H   0  0  0  0  0  0  0  0  0  0  0  0
    4.2490    0.1730   -1.4047 H   0  0  0  0  0  0  0  0  0  0  0  0
    2.9490    2.5084    0.0963 H   0  0  0  0  0  0  0  0  0  0  0  0
    2.8465    2.3631   -1.6889 H   0  0  0  0  0  0  0  0  0  0  0  0
    4.8661    2.6277   -3.0646 H   0  0  0  0  0  0  0  0  0  0  0  0
    7.1578    3.5227   -3.2291 H   0  0  0  0  0  0  0  0  0  0  0  0
    9.2940    4.3706   -0.3880 H   0  0  0  0  0  0  0  0  0  0  0  0
    7.4276    3.6462    1.0627 H   0  0  0  0  0  0  0  0  0  0  0  0
    5.1382    2.7525    1.2388 H   0  0  0  0  0  0  0  0  0  0  0  0
    3.3804   -1.9625   -1.4701 H   0  0  0  0  0  0  0  0  0  0  0  0
    2.5941   -2.0906    0.1314 H   0  0  0  0  0  0  0  0  0  0  0  0
   -2.2576   -0.2914   -3.3387 H   0  0  0  0  0  0  0  0  0  0  0  0
   -3.0224    1.8312   -2.7369 H   0  0  0  0  0  0  0  0  0  0  0  0
   -2.9432    2.2291   -0.9880 H   0  0  0  0  0  0  0  0  0  0  0  0
   -4.5035    1.6783   -1.7244 H   0  0  0  0  0  0  0  0  0  0  0  0
   -4.6363    1.0506    0.6818 H   0  0  0  0  0  0  0  0  0  0  0  0
   -3.1051    0.3500    4.9497 H   0  0  0  0  0  0  0  0  0  0  0  0
   -3.9509    1.9682    6.6104 H   0  0  0  0  0  0  0  0  0  0  0  0
   -5.0671    4.0498    5.8410 H   0  0  0  0  0  0  0  0  0  0  0  0
   -4.4820    2.9752    1.8073 H   0  0  0  0  0  0  0  0  0  0  0  0
   -3.2665   -2.1151    1.1336 H   0  0  0  0  0  0  0  0  0  0  0  0
   -2.5900   -4.8722   -2.5379 H   0  0  0  0  0  0  0  0  0  0  0  0
   -0.9122   -4.9752   -1.8264 H   0  0  0  0  0  0  0  0  0  0  0  0
   -2.1516   -6.1289   -1.3442 H   0  0  0  0  0  0  0  0  0  0  0  0
   -1.8787   -3.8748    1.6515 H   0  0  0  0  0  0  0  0  0  0  0  0
   -0.4884   -3.9377    0.5249 H   0  0  0  0  0  0  0  0  0  0  0  0
   -1.3839   -5.4431    0.9451 H   0  0  0  0  0  0  0  0  0  0  0  0
   -4.5790   -4.3719   -0.9042 H   0  0  0  0  0  0  0  0  0  0  0  0
   -4.2354   -4.0871    0.8388 H   0  0  0  0  0  0  0  0  0  0  0  0
   -3.8930   -5.6784    0.1293 H   0  0  0  0  0  0  0  0  0  0  0  0
    0.3711    0.8838   -4.3704 H   0  0  0  0  0  0  0  0  0  0  0  0
  1  2  1  0
  2  3  1  0
  2  4  1  0
  4  5  1  0
  5  6  1  0
  6  7  1  0
  7  8  2  0
  8  9  1  0
  9 10  2  0
 10 11  1  0
 10 12  1  0
 12 13  2  0
  4 14  1  0
 14 15  1  0
 15 16  2  0
 15 17  1  0
 17 18  1  0
 18 19  1  0
 19 20  2  0
 20 21  1  0
 21 22  1  0
 21 23  2  0
 23 24  1  0
 24 25  1  0
 25 26  2  0
 25 27  1  0
 27 28  2  0
 28 29  1  0
 29 30  2  0
 30 31  1  0
 31 32  2  0
 23 33  1  0
 33 34  2  0
 34 35  1  0
 35 36  1  0
 35 37  1  0
 35 38  1  0
 17 39  2  0
 39 40  1  0
 39 41  1  0
 13  7  1  0
 32 27  1  0
 34 19  1  0
 41  4  1  0
  1 42  1  0
  1 43  1  0
  1 44  1  0
  2 45  1  0
  3 46  1  0
  3 47  1  0
  3 48  1  0
  5 49  1  0
  5 50  1  0
  6 51  1  0
  6 52  1  0
  8 53  1  0
  9 54  1  0
 11 55  1  0
 12 56  1  0
 13 57  1  0
 14 58  1  0
 14 59  1  0
 20 60  1  0
 22 61  1  0
 22 62  1  0
 22 63  1  0
 24 64  1  0
 28 65  1  0
 29 66  1  0
 30 67  1  0
 32 68  1  0
 33 69  1  0
 36 70  1  0
 36 71  1  0
 36 72  1  0
 37 73  1  0
 37 74  1  0
 37 75  1  0
 38 76  1  0
 38 77  1  0
 38 78  1  0
 40 79  1  0
M  END
$$$$
