
     RDKit          3D

 64 68  0  0  0  0  0  0  0  0999 V2000
   -5.2396   -1.2782   -1.3396 C   0  0  0  0  0  0  0  0  0  0  0  0
   -4.4594   -0.5335   -0.2527 C   0  0  0  0  0  0  0  0  0  0  0  0
   -3.2407    0.2271   -0.8348 C   0  0  0  0  0  0  0  0  0  0  0  0
   -2.1559   -0.6873   -1.3837 C   0  0  0  0  0  0  0  0  0  0  0  0
   -1.6245   -0.4365   -2.6616 C   0  0  0  0  0  0  0  0  0  0  0  0
   -0.5760   -1.2110   -3.1572 C   0  0  0  0  0  0  0  0  0  0  0  0
   -0.0311   -2.2373   -2.3828 C   0  0  0  0  0  0  0  0  0  0  0  0
   -0.5526   -2.5185   -1.1048 C   0  0  0  0  0  0  0  0  0  0  0  0
    0.0035   -3.5432   -0.2564 N   0  0  0  0  0  0  0  0  0  0  0  0
    1.1635   -4.3220   -0.5757 C   0  0  0  0  0  0  0  0  0  0  0  0
    1.2433   -4.9177   -1.6841 O   0  0  0  0  0  0  0  0  0  0  0  0
    2.2843   -4.4385    0.4192 C   0  0  0  0  0  0  0  0  0  0  0  0
    3.4952   -3.5728    0.0230 C   0  0  0  0  0  0  0  0  0  0  0  0
    3.1965   -2.1306   -0.0487 N   0  0  0  0  0  0  0  0  0  0  0  0
    3.0882   -1.4762    1.2671 C   0  0  0  0  0  0  0  0  0  0  0  0
    1.6504   -1.3091    1.7120 C   0  0  0  0  0  0  0  0  0  0  0  0
    1.3059   -0.0285    1.8087 C   0  0  0  0  0  0  0  0  0  0  0  0
    2.4474    0.7806    1.4545 C   0  0  0  0  0  0  0  0  0  0  0  0
    2.5591    2.1685    1.4026 C   0  0  0  0  0  0  0  0  0  0  0  0
    3.7953    2.7184    1.0338 C   0  0  0  0  0  0  0  0  0  0  0  0
    4.8842    1.8777    0.7272 C   0  0  0  0  0  0  0  0  0  0  0  0
    4.7398    0.4799    0.7823 C   0  0  0  0  0  0  0  0  0  0  0  0
    3.5007   -0.0449    1.1497 C   0  0  0  0  0  0  0  0  0  0  0  0
   -1.6065   -1.7313   -0.6134 C   0  0  0  0  0  0  0  0  0  0  0  0
   -2.6264    1.2662    0.1090 C   0  0  0  0  0  0  0  0  0  0  0  0
   -2.3761    1.0101    1.4810 C   0  0  0  0  0  0  0  0  0  0  0  0
   -2.7091   -0.2071    2.0642 O   0  0  0  0  0  0  0  0  0  0  0  0
   -1.7920    1.9261    2.2473 O   0  0  0  0  0  0  0  0  0  0  0  0
   -1.3856    3.1015    1.7918 C   0  0  0  0  0  0  0  0  0  0  0  0
   -0.7717    4.0039    2.6666 C   0  0  0  0  0  0  0  0  0  0  0  0
   -0.3276    5.2418    2.1964 C   0  0  0  0  0  0  0  0  0  0  0  0
   -0.4916    5.5831    0.8487 C   0  0  0  0  0  0  0  0  0  0  0  0
   -1.1010    4.6871   -0.0345 C   0  0  0  0  0  0  0  0  0  0  0  0
   -1.5593    3.4388    0.4330 C   0  0  0  0  0  0  0  0  0  0  0  0
   -2.1813    2.5050   -0.4118 C   0  0  0  0  0  0  0  0  0  0  0  0
   -2.3370    2.7724   -1.6360 O   0  0  0  0  0  0  0  0  0  0  0  0
   -6.0977   -1.8124   -0.8814 H   0  0  0  0  0  0  0  0  0  0  0  0
   -5.6318   -0.5639   -2.0966 H   0  0  0  0  0  0  0  0  0  0  0  0
   -4.5877   -2.0256   -1.8437 H   0  0  0  0  0  0  0  0  0  0  0  0
   -4.1624   -1.2814    0.5083 H   0  0  0  0  0  0  0  0  0  0  0  0
   -5.1452    0.1959    0.2340 H   0  0  0  0  0  0  0  0  0  0  0  0
   -3.6759    0.7893   -1.6922 H   0  0  0  0  0  0  0  0  0  0  0  0
   -2.0176    0.3654   -3.2763 H   0  0  0  0  0  0  0  0  0  0  0  0
   -0.1652   -1.0010   -4.1377 H   0  0  0  0  0  0  0  0  0  0  0  0
    0.8072   -2.7858   -2.7868 H   0  0  0  0  0  0  0  0  0  0  0  0
   -0.3572   -3.6216    0.7231 H   0  0  0  0  0  0  0  0  0  0  0  0
    2.6072   -5.5010    0.4664 H   0  0  0  0  0  0  0  0  0  0  0  0
    1.9348   -4.1675    1.4354 H   0  0  0  0  0  0  0  0  0  0  0  0
    3.8569   -3.9035   -0.9751 H   0  0  0  0  0  0  0  0  0  0  0  0
    4.3322   -3.7579    0.7338 H   0  0  0  0  0  0  0  0  0  0  0  0
    2.3592   -1.9422   -0.6484 H   0  0  0  0  0  0  0  0  0  0  0  0
    3.6917   -1.9810    2.0556 H   0  0  0  0  0  0  0  0  0  0  0  0
    0.9834   -2.1163    1.9691 H   0  0  0  0  0  0  0  0  0  0  0  0
    0.3422    0.3313    2.1350 H   0  0  0  0  0  0  0  0  0  0  0  0
    1.7219    2.8089    1.6464 H   0  0  0  0  0  0  0  0  0  0  0  0
    3.9179    3.7937    0.9968 H   0  0  0  0  0  0  0  0  0  0  0  0
    5.8319    2.3122    0.4418 H   0  0  0  0  0  0  0  0  0  0  0  0
    5.5676   -0.1731    0.5405 H   0  0  0  0  0  0  0  0  0  0  0  0
   -1.9799   -1.9315    0.3801 H   0  0  0  0  0  0  0  0  0  0  0  0
   -2.4977   -0.3887    3.0408 H   0  0  0  0  0  0  0  0  0  0  0  0
   -0.6308    3.7391    3.7085 H   0  0  0  0  0  0  0  0  0  0  0  0
    0.1482    5.9357    2.8746 H   0  0  0  0  0  0  0  0  0  0  0  0
   -0.1507    6.5467    0.4871 H   0  0  0  0  0  0  0  0  0  0  0  0
   -1.2149    4.9729   -1.0752 H   0  0  0  0  0  0  0  0  0  0  0  0
  1  2  1  0
  2  3  1  0
  3  4  1  0
  4  5  2  0
  5  6  1  0
  6  7  2  0
  7  8  1  0
  8  9  1  0
  9 10  1  0
 10 11  2  0
 10 12  1  0
 12 13  1  0
 13 14  1  0
 14 15  1  0
 15 16  1  0
 16 17  2  0
 17 18  1  0
 18 19  2  0
 19 20  1  0
 20 21  2  0
 21 22  1  0
 22 23  2  0
  8 24  2  0
  3 25  1  0
 25 26  2  0
 26 27  1  0
 26 28  1  0
 28 29  1  0
 29 30  2  0
 30 31  1  0
 31 32  2  0
 32 33  1  0
 33 34  2  0
 34 35  1  0
 35 36  2  0
 23 15  1  0
 23 18  1  0
 24  4  1  0
 34 29  1  0
 35 25  1  0
  1 37  1  0
  1 38  1  0
  1 39  1  0
  2 40  1  0
  2 41  1  0
  3 42  1  0
  5 43  1  0
  6 44  1  0
  7 45  1  0
  9 46  1  0
 12 47  1  0
 12 48  1  0
 13 49  1  0
 13 50  1  0
 14 51  1  0
 15 52  1  0
 16 53  1  0
 17 54  1  0
 19 55  1  0
 20 56  1  0
 21 57  1  0
 22 58  1  0
 24 59  1  0
 27 60  1  0
 30 61  1  0
 31 62  1  0
 32 63  1  0
 33 64  1  0
M  END
$$$$
