
     RDKit          3D

 77 80  0  0  0  0  0  0  0  0999 V2000
   -5.5483    0.1641    0.2815 C   0  0  0  0  0  0  0  0  0  0  0  0
   -5.2320   -0.8739    1.3308 C   0  0  0  0  0  0  0  0  0  0  0  0
   -6.1147   -1.0376    2.4200 C   0  0  0  0  0  0  0  0  0  0  0  0
   -7.2398   -0.2211    2.5411 O   0  0  0  0  0  0  0  0  0  0  0  0
   -5.8677   -2.0232    3.3841 C   0  0  0  0  0  0  0  0  0  0  0  0
   -4.7480   -2.8453    3.2793 C   0  0  0  0  0  0  0  0  0  0  0  0
   -3.8531   -2.6773    2.2237 C   0  0  0  0  0  0  0  0  0  0  0  0
   -4.0660   -1.6817    1.2565 C   0  0  0  0  0  0  0  0  0  0  0  0
   -3.0551   -1.5214    0.1904 C   0  0  0  0  0  0  0  0  0  0  0  0
   -2.6613   -2.5390   -0.4421 O   0  0  0  0  0  0  0  0  0  0  0  0
   -2.4885   -0.2327   -0.0918 N   0  0  0  0  0  0  0  0  0  0  0  0
   -1.4980   -0.0267   -1.1553 C   0  0  2  0  0  0  0  0  0  0  0  0
   -0.1030   -0.5313   -0.7146 C   0  0  0  0  0  0  0  0  0  0  0  0
    0.4304    0.0909    0.6055 C   0  0  2  0  0  0  0  0  0  0  0  0
    0.7923    1.4402    0.4356 O   0  0  0  0  0  0  0  0  0  0  0  0
    1.6025   -0.7449    1.1915 C   0  0  2  0  0  0  0  0  0  0  0  0
    2.0264   -0.2969    2.6103 C   0  0  0  0  0  0  0  0  0  0  0  0
    2.7222    1.0429    2.6527 C   0  0  0  0  0  0  0  0  0  0  0  0
    2.0128    2.2022    3.0116 C   0  0  0  0  0  0  0  0  0  0  0  0
    2.6576    3.4425    3.0423 C   0  0  0  0  0  0  0  0  0  0  0  0
    4.0149    3.5346    2.7229 C   0  0  0  0  0  0  0  0  0  0  0  0
    4.7308    2.3859    2.3761 C   0  0  0  0  0  0  0  0  0  0  0  0
    4.0902    1.1437    2.3444 C   0  0  0  0  0  0  0  0  0  0  0  0
    2.7559   -0.7787    0.2838 N   0  0  0  0  0  0  0  0  0  0  0  0
    3.6461   -1.9029    0.2154 C   0  0  0  0  0  0  0  0  0  0  0  0
    3.4681   -2.9001    0.9666 O   0  0  0  0  0  0  0  0  0  0  0  0
    4.8163   -1.8764   -0.6875 C   0  0  0  0  0  0  0  0  0  0  0  0
    6.0728   -2.2040   -0.1530 C   0  0  0  0  0  0  0  0  0  0  0  0
    7.2191   -2.1403   -0.9436 C   0  0  0  0  0  0  0  0  0  0  0  0
    7.1278   -1.7484   -2.2774 C   0  0  0  0  0  0  0  0  0  0  0  0
    5.8834   -1.4374   -2.8403 C   0  0  0  0  0  0  0  0  0  0  0  0
    5.8108   -1.0441   -4.1771 O   0  0  0  0  0  0  0  0  0  0  0  0
    4.7105   -1.5248   -2.0594 C   0  0  0  0  0  0  0  0  0  0  0  0
    3.3736   -1.2362   -2.6994 C   0  0  0  0  0  0  0  0  0  0  0  0
   -1.4770    1.4479   -1.6103 C   0  0  0  0  0  0  0  0  0  0  0  0
   -2.7782    1.8363   -2.2663 C   0  0  0  0  0  0  0  0  0  0  0  0
   -3.0579    1.4251   -3.5805 C   0  0  0  0  0  0  0  0  0  0  0  0
   -4.2795    1.7529   -4.1766 C   0  0  0  0  0  0  0  0  0  0  0  0
   -5.2302    2.4905   -3.4659 C   0  0  0  0  0  0  0  0  0  0  0  0
   -4.9601    2.9032   -2.1586 C   0  0  0  0  0  0  0  0  0  0  0  0
   -3.7394    2.5785   -1.5592 C   0  0  0  0  0  0  0  0  0  0  0  0
   -5.1123   -0.1026   -0.7034 H   0  0  0  0  0  0  0  0  0  0  0  0
   -5.1587    1.1500    0.6079 H   0  0  0  0  0  0  0  0  0  0  0  0
   -6.6445    0.2486    0.1267 H   0  0  0  0  0  0  0  0  0  0  0  0
   -7.8885   -0.3200    3.3133 H   0  0  0  0  0  0  0  0  0  0  0  0
   -6.5483   -2.1548    4.2157 H   0  0  0  0  0  0  0  0  0  0  0  0
   -4.5663   -3.6082    4.0254 H   0  0  0  0  0  0  0  0  0  0  0  0
   -2.9766   -3.3124    2.1735 H   0  0  0  0  0  0  0  0  0  0  0  0
   -2.7478    0.5716    0.5232 H   0  0  0  0  0  0  0  0  0  0  0  0
   -1.7945   -0.6359   -2.0390 H   0  0  0  0  0  0  0  0  0  0  0  0
   -0.1698   -1.6336   -0.5903 H   0  0  0  0  0  0  0  0  0  0  0  0
    0.6248   -0.3604   -1.5368 H   0  0  0  0  0  0  0  0  0  0  0  0
   -0.3874    0.0583    1.3565 H   0  0  0  0  0  0  0  0  0  0  0  0
    1.3446    1.5193   -0.3838 H   0  0  0  0  0  0  0  0  0  0  0  0
    1.2135   -1.7819    1.3063 H   0  0  0  0  0  0  0  0  0  0  0  0
    2.7085   -1.0643    3.0375 H   0  0  0  0  0  0  0  0  0  0  0  0
    1.1331   -0.2838    3.2728 H   0  0  0  0  0  0  0  0  0  0  0  0
    0.9597    2.1467    3.2584 H   0  0  0  0  0  0  0  0  0  0  0  0
    2.1046    4.3325    3.3131 H   0  0  0  0  0  0  0  0  0  0  0  0
    4.5123    4.4955    2.7468 H   0  0  0  0  0  0  0  0  0  0  0  0
    5.7831    2.4575    2.1332 H   0  0  0  0  0  0  0  0  0  0  0  0
    4.6601    0.2617    2.0800 H   0  0  0  0  0  0  0  0  0  0  0  0
    3.0595    0.1038   -0.1834 H   0  0  0  0  0  0  0  0  0  0  0  0
    6.1693   -2.4861    0.8887 H   0  0  0  0  0  0  0  0  0  0  0  0
    8.1838   -2.3831   -0.5169 H   0  0  0  0  0  0  0  0  0  0  0  0
    8.0272   -1.6894   -2.8771 H   0  0  0  0  0  0  0  0  0  0  0  0
    6.6387   -0.9750   -4.7573 H   0  0  0  0  0  0  0  0  0  0  0  0
    3.1337   -0.1576   -2.5972 H   0  0  0  0  0  0  0  0  0  0  0  0
    2.5692   -1.8433   -2.2348 H   0  0  0  0  0  0  0  0  0  0  0  0
    3.3806   -1.4980   -3.7782 H   0  0  0  0  0  0  0  0  0  0  0  0
   -1.2829    2.1162   -0.7452 H   0  0  0  0  0  0  0  0  0  0  0  0
   -0.6499    1.6033   -2.3374 H   0  0  0  0  0  0  0  0  0  0  0  0
   -2.3323    0.8470   -4.1393 H   0  0  0  0  0  0  0  0  0  0  0  0
   -4.4904    1.4323   -5.1886 H   0  0  0  0  0  0  0  0  0  0  0  0
   -6.1764    2.7411   -3.9277 H   0  0  0  0  0  0  0  0  0  0  0  0
   -5.6985    3.4710   -1.6075 H   0  0  0  0  0  0  0  0  0  0  0  0
   -3.5478    2.8989   -0.5427 H   0  0  0  0  0  0  0  0  0  0  0  0
  1  2  1  0
  2  3  2  0
  3  4  1  0
  3  5  1  0
  5  6  2  0
  6  7  1  0
  7  8  2  0
  8  9  1  0
  9 10  2  0
  9 11  1  0
 11 12  1  0
 12 13  1  0
 13 14  1  0
 14 15  1  0
 14 16  1  0
 16 17  1  0
 17 18  1  0
 18 19  2  0
 19 20  1  0
 20 21  2  0
 21 22  1  0
 22 23  2  0
 16 24  1  0
 24 25  1  0
 25 26  2  0
 25 27  1  0
 27 28  2  0
 28 29  1  0
 29 30  2  0
 30 31  1  0
 31 32  1  0
 31 33  2  0
 33 34  1  0
 12 35  1  0
 35 36  1  0
 36 37  2  0
 37 38  1  0
 38 39  2  0
 39 40  1  0
 40 41  2  0
  8  2  1  0
 23 18  1  0
 33 27  1  0
 41 36  1  0
  1 42  1  0
  1 43  1  0
  1 44  1  0
  4 45  1  0
  5 46  1  0
  6 47  1  0
  7 48  1  0
 11 49  1  0
 12 50  1  6
 13 51  1  0
 13 52  1  0
 14 53  1  1
 15 54  1  0
 16 55  1  1
 17 56  1  0
 17 57  1  0
 19 58  1  0
 20 59  1  0
 21 60  1  0
 22 61  1  0
 23 62  1  0
 24 63  1  0
 28 64  1  0
 29 65  1  0
 30 66  1  0
 32 67  1  0
 34 68  1  0
 34 69  1  0
 34 70  1  0
 35 71  1  0
 35 72  1  0
 37 73  1  0
 38 74  1  0
 39 75  1  0
 40 76  1  0
 41 77  1  0
M  END
$$$$
