
     RDKit          3D

 64 68  0  0  0  0  0  0  0  0999 V2000
    3.9837    1.7622   -3.3971 C   0  0  0  0  0  0  0  0  0  0  0  0
    4.7155    1.3179   -2.1293 C   0  0  0  0  0  0  0  0  0  0  0  0
    3.8325    0.4119   -1.2358 C   0  0  0  0  0  0  0  0  0  0  0  0
    2.7092    1.1907   -0.5735 C   0  0  0  0  0  0  0  0  0  0  0  0
    2.9809    2.1979    0.3698 C   0  0  0  0  0  0  0  0  0  0  0  0
    1.9368    2.8941    0.9813 C   0  0  0  0  0  0  0  0  0  0  0  0
    0.6111    2.6031    0.6550 C   0  0  0  0  0  0  0  0  0  0  0  0
    0.3175    1.6164   -0.3013 C   0  0  0  0  0  0  0  0  0  0  0  0
   -1.0390    1.2778   -0.6364 N   0  0  0  0  0  0  0  0  0  0  0  0
   -2.1171    2.2256   -0.6882 C   0  0  0  0  0  0  0  0  0  0  0  0
   -1.8872    3.4648   -0.6508 O   0  0  0  0  0  0  0  0  0  0  0  0
   -3.5320    1.7424   -0.7927 C   0  0  0  0  0  0  0  0  0  0  0  0
   -4.0377    1.2710    0.5805 C   0  0  0  0  0  0  0  0  0  0  0  0
   -5.4253    0.7786    0.5249 N   0  0  0  0  0  0  0  0  0  0  0  0
   -5.5015   -0.6284    0.0965 C   0  0  0  0  0  0  0  0  0  0  0  0
   -5.2283   -1.5537    1.2605 C   0  0  0  0  0  0  0  0  0  0  0  0
   -6.2795   -2.3139    1.5561 C   0  0  0  0  0  0  0  0  0  0  0  0
   -7.3453   -1.9936    0.6328 C   0  0  0  0  0  0  0  0  0  0  0  0
   -8.6219   -2.5455    0.5338 C   0  0  0  0  0  0  0  0  0  0  0  0
   -9.4701   -2.0770   -0.4833 C   0  0  0  0  0  0  0  0  0  0  0  0
   -9.0259   -1.0813   -1.3766 C   0  0  0  0  0  0  0  0  0  0  0  0
   -7.7323   -0.5459   -1.2557 C   0  0  0  0  0  0  0  0  0  0  0  0
   -6.9102   -1.0168   -0.2288 C   0  0  0  0  0  0  0  0  0  0  0  0
    1.3699    0.9032   -0.8948 C   0  0  0  0  0  0  0  0  0  0  0  0
    4.5954   -0.4147   -0.1943 C   0  0  0  0  0  0  0  0  0  0  0  0
    4.0853   -1.6804    0.1756 C   0  0  0  0  0  0  0  0  0  0  0  0
    2.9251   -2.1735   -0.4164 O   0  0  0  0  0  0  0  0  0  0  0  0
    4.6945   -2.4205    1.0957 O   0  0  0  0  0  0  0  0  0  0  0  0
    5.7899   -2.0279    1.7305 C   0  0  0  0  0  0  0  0  0  0  0  0
    6.3743   -2.8684    2.6848 C   0  0  0  0  0  0  0  0  0  0  0  0
    7.5242   -2.4632    3.3672 C   0  0  0  0  0  0  0  0  0  0  0  0
    8.0947   -1.2162    3.1001 C   0  0  0  0  0  0  0  0  0  0  0  0
    7.5191   -0.3689    2.1484 C   0  0  0  0  0  0  0  0  0  0  0  0
    6.3613   -0.7690    1.4528 C   0  0  0  0  0  0  0  0  0  0  0  0
    5.7479    0.0481    0.4876 C   0  0  0  0  0  0  0  0  0  0  0  0
    6.2306    1.1865    0.2431 O   0  0  0  0  0  0  0  0  0  0  0  0
    4.6546    2.4026   -4.0076 H   0  0  0  0  0  0  0  0  0  0  0  0
    3.0771    2.3488   -3.1374 H   0  0  0  0  0  0  0  0  0  0  0  0
    3.6890    0.8808   -4.0053 H   0  0  0  0  0  0  0  0  0  0  0  0
    5.0311    2.2330   -1.5861 H   0  0  0  0  0  0  0  0  0  0  0  0
    5.6274    0.7596   -2.4350 H   0  0  0  0  0  0  0  0  0  0  0  0
    3.3862   -0.3221   -1.9435 H   0  0  0  0  0  0  0  0  0  0  0  0
    3.9980    2.4424    0.6408 H   0  0  0  0  0  0  0  0  0  0  0  0
    2.1559    3.6563    1.7180 H   0  0  0  0  0  0  0  0  0  0  0  0
   -0.1806    3.1302    1.1701 H   0  0  0  0  0  0  0  0  0  0  0  0
   -1.2410    0.2956   -0.9317 H   0  0  0  0  0  0  0  0  0  0  0  0
   -4.1786    2.5658   -1.1677 H   0  0  0  0  0  0  0  0  0  0  0  0
   -3.5759    0.9143   -1.5300 H   0  0  0  0  0  0  0  0  0  0  0  0
   -4.0060    2.1310    1.2839 H   0  0  0  0  0  0  0  0  0  0  0  0
   -3.3559    0.4939    0.9922 H   0  0  0  0  0  0  0  0  0  0  0  0
   -5.9760    1.3827   -0.1300 H   0  0  0  0  0  0  0  0  0  0  0  0
   -4.8331   -0.8560   -0.7616 H   0  0  0  0  0  0  0  0  0  0  0  0
   -4.2896   -1.6070    1.7958 H   0  0  0  0  0  0  0  0  0  0  0  0
   -6.3149   -3.0520    2.3464 H   0  0  0  0  0  0  0  0  0  0  0  0
   -8.9498   -3.3172    1.2182 H   0  0  0  0  0  0  0  0  0  0  0  0
  -10.4667   -2.4866   -0.5848 H   0  0  0  0  0  0  0  0  0  0  0  0
   -9.6828   -0.7299   -2.1617 H   0  0  0  0  0  0  0  0  0  0  0  0
   -7.3821    0.2127   -1.9436 H   0  0  0  0  0  0  0  0  0  0  0  0
    1.1403    0.1290   -1.6169 H   0  0  0  0  0  0  0  0  0  0  0  0
    2.5525   -3.0775   -0.1525 H   0  0  0  0  0  0  0  0  0  0  0  0
    5.9362   -3.8352    2.8988 H   0  0  0  0  0  0  0  0  0  0  0  0
    7.9730   -3.1158    4.1048 H   0  0  0  0  0  0  0  0  0  0  0  0
    8.9850   -0.9054    3.6315 H   0  0  0  0  0  0  0  0  0  0  0  0
    7.9804    0.5925    1.9588 H   0  0  0  0  0  0  0  0  0  0  0  0
  1  2  1  0
  2  3  1  0
  3  4  1  0
  4  5  2  0
  5  6  1  0
  6  7  2  0
  7  8  1  0
  8  9  1  0
  9 10  1  0
 10 11  2  0
 10 12  1  0
 12 13  1  0
 13 14  1  0
 14 15  1  0
 15 16  1  0
 16 17  2  0
 17 18  1  0
 18 19  2  0
 19 20  1  0
 20 21  2  0
 21 22  1  0
 22 23  2  0
  8 24  2  0
  3 25  1  0
 25 26  2  0
 26 27  1  0
 26 28  1  0
 28 29  1  0
 29 30  2  0
 30 31  1  0
 31 32  2  0
 32 33  1  0
 33 34  2  0
 34 35  1  0
 35 36  2  0
 23 15  1  0
 23 18  1  0
 24  4  1  0
 34 29  1  0
 35 25  1  0
  1 37  1  0
  1 38  1  0
  1 39  1  0
  2 40  1  0
  2 41  1  0
  3 42  1  0
  5 43  1  0
  6 44  1  0
  7 45  1  0
  9 46  1  0
 12 47  1  0
 12 48  1  0
 13 49  1  0
 13 50  1  0
 14 51  1  0
 15 52  1  0
 16 53  1  0
 17 54  1  0
 19 55  1  0
 20 56  1  0
 21 57  1  0
 22 58  1  0
 24 59  1  0
 27 60  1  0
 30 61  1  0
 31 62  1  0
 32 63  1  0
 33 64  1  0
M  END
$$$$
