
     RDKit          3D

 72 75  0  0  0  0  0  0  0  0999 V2000
   -5.3214   -0.7517   -2.9727 C   0  0  0  0  0  0  0  0  0  0  0  0
   -4.2098    0.0616   -2.3157 C   0  0  0  0  0  0  0  0  0  0  0  0
   -2.9874   -0.8180   -2.0107 C   0  0  0  0  0  0  0  0  0  0  0  0
   -1.8516   -0.0241   -1.3307 C   0  0  0  0  0  0  0  0  0  0  0  0
   -0.6084   -0.9267   -1.0671 C   0  0  0  0  0  0  0  0  0  0  0  0
   -0.5966   -1.6702    0.2846 C   0  0  0  0  0  0  0  0  0  0  0  0
   -1.6635   -2.7257    0.3872 C   0  0  0  0  0  0  0  0  0  0  0  0
   -1.5657   -3.9049   -0.3703 C   0  0  0  0  0  0  0  0  0  0  0  0
   -2.5671   -4.8772   -0.2916 C   0  0  0  0  0  0  0  0  0  0  0  0
   -3.6709   -4.6800    0.5426 C   0  0  0  0  0  0  0  0  0  0  0  0
   -3.7742   -3.5109    1.3013 C   0  0  0  0  0  0  0  0  0  0  0  0
   -2.7746   -2.5362    1.2270 C   0  0  0  0  0  0  0  0  0  0  0  0
   -2.3257    0.5330   -0.1004 O   0  0  0  0  0  0  0  0  0  0  0  0
   -1.7044    1.6347    0.5025 C   0  0  0  0  0  0  0  0  0  0  0  0
   -1.8693    1.8146    1.8700 O   0  0  0  0  0  0  0  0  0  0  0  0
   -0.9608    2.4825   -0.2389 C   0  0  0  0  0  0  0  0  0  0  0  0
   -0.0853    3.5793    0.3613 C   0  0  0  0  0  0  0  0  0  0  0  0
   -0.8402    4.5408    1.3138 C   0  0  0  0  0  0  0  0  0  0  0  0
   -0.0111    5.7817    1.6484 C   0  0  0  0  0  0  0  0  0  0  0  0
    1.1718    2.9532    0.9459 C   0  0  0  0  0  0  0  0  0  0  0  0
    1.2081    2.4195    2.2484 C   0  0  0  0  0  0  0  0  0  0  0  0
    2.3403    1.7414    2.7037 C   0  0  0  0  0  0  0  0  0  0  0  0
    3.4428    1.5691    1.8662 C   0  0  0  0  0  0  0  0  0  0  0  0
    3.4252    2.0820    0.5592 C   0  0  0  0  0  0  0  0  0  0  0  0
    4.5384    1.9058   -0.3313 N   0  0  0  0  0  0  0  0  0  0  0  0
    5.5992    0.5367   -0.2472 S   0  0  0  0  0  0  0  0  0  0  0  0
    6.4199    0.4647   -1.5039 O   0  0  0  0  0  0  0  0  0  0  0  0
    6.5255    0.6916    0.9266 O   0  0  0  0  0  0  0  0  0  0  0  0
    4.6432   -0.9360   -0.1126 C   0  0  0  0  0  0  0  0  0  0  0  0
    3.6650   -1.2152   -1.0766 C   0  0  0  0  0  0  0  0  0  0  0  0
    2.8973   -2.3798   -0.9840 C   0  0  0  0  0  0  0  0  0  0  0  0
    3.0973   -3.2692    0.0793 C   0  0  0  0  0  0  0  0  0  0  0  0
    2.3015   -4.4646    0.1799 C   0  0  0  0  0  0  0  0  0  0  0  0
    1.6613   -5.4252    0.2613 N   0  0  0  0  0  0  0  0  0  0  0  0
    4.0690   -2.9889    1.0484 C   0  0  0  0  0  0  0  0  0  0  0  0
    4.8409   -1.8265    0.9524 C   0  0  0  0  0  0  0  0  0  0  0  0
    2.2925    2.7773    0.1127 C   0  0  0  0  0  0  0  0  0  0  0  0
   -0.9024    2.2135   -1.6964 C   0  0  0  0  0  0  0  0  0  0  0  0
   -0.3780    3.0376   -2.4912 O   0  0  0  0  0  0  0  0  0  0  0  0
   -1.4560    1.0365   -2.2024 O   0  0  0  0  0  0  0  0  0  0  0  0
   -5.6518   -1.5697   -2.2974 H   0  0  0  0  0  0  0  0  0  0  0  0
   -4.9661   -1.1876   -3.9306 H   0  0  0  0  0  0  0  0  0  0  0  0
   -6.1899   -0.0926   -3.1829 H   0  0  0  0  0  0  0  0  0  0  0  0
   -4.6023    0.5042   -1.3747 H   0  0  0  0  0  0  0  0  0  0  0  0
   -3.9220    0.8886   -3.0001 H   0  0  0  0  0  0  0  0  0  0  0  0
   -3.3137   -1.6532   -1.3608 H   0  0  0  0  0  0  0  0  0  0  0  0
   -2.6105   -1.2534   -2.9625 H   0  0  0  0  0  0  0  0  0  0  0  0
   -0.4711   -1.6517   -1.8988 H   0  0  0  0  0  0  0  0  0  0  0  0
    0.3001   -0.2847   -1.0754 H   0  0  0  0  0  0  0  0  0  0  0  0
   -0.6708   -0.9459    1.1236 H   0  0  0  0  0  0  0  0  0  0  0  0
    0.3894   -2.1640    0.4058 H   0  0  0  0  0  0  0  0  0  0  0  0
   -0.7177   -4.0670   -1.0241 H   0  0  0  0  0  0  0  0  0  0  0  0
   -2.4883   -5.7828   -0.8790 H   0  0  0  0  0  0  0  0  0  0  0  0
   -4.4461   -5.4330    0.6009 H   0  0  0  0  0  0  0  0  0  0  0  0
   -4.6303   -3.3588    1.9458 H   0  0  0  0  0  0  0  0  0  0  0  0
   -2.8718   -1.6322    1.8152 H   0  0  0  0  0  0  0  0  0  0  0  0
   -2.4216    1.1624    2.4130 H   0  0  0  0  0  0  0  0  0  0  0  0
    0.2372    4.2365   -0.4761 H   0  0  0  0  0  0  0  0  0  0  0  0
   -1.1286    4.0576    2.2661 H   0  0  0  0  0  0  0  0  0  0  0  0
   -1.7771    4.8753    0.8171 H   0  0  0  0  0  0  0  0  0  0  0  0
    0.2491    6.3372    0.7224 H   0  0  0  0  0  0  0  0  0  0  0  0
    0.9217    5.4949    2.1784 H   0  0  0  0  0  0  0  0  0  0  0  0
   -0.5987    6.4537    2.3088 H   0  0  0  0  0  0  0  0  0  0  0  0
    0.3659    2.5112    2.9171 H   0  0  0  0  0  0  0  0  0  0  0  0
    2.3589    1.3380    3.7080 H   0  0  0  0  0  0  0  0  0  0  0  0
    4.3055    1.0410    2.2462 H   0  0  0  0  0  0  0  0  0  0  0  0
    4.6040    2.5043   -1.1850 H   0  0  0  0  0  0  0  0  0  0  0  0
    3.4976   -0.5306   -1.8987 H   0  0  0  0  0  0  0  0  0  0  0  0
    2.1446   -2.5834   -1.7363 H   0  0  0  0  0  0  0  0  0  0  0  0
    4.2300   -3.6682    1.8769 H   0  0  0  0  0  0  0  0  0  0  0  0
    5.5878   -1.6235    1.7086 H   0  0  0  0  0  0  0  0  0  0  0  0
    2.2716    3.1516   -0.9039 H   0  0  0  0  0  0  0  0  0  0  0  0
  1  2  1  0
  2  3  1  0
  3  4  1  0
  4  5  1  0
  5  6  1  0
  6  7  1  0
  7  8  2  0
  8  9  1  0
  9 10  2  0
 10 11  1  0
 11 12  2  0
  4 13  1  0
 13 14  1  0
 14 15  1  0
 14 16  2  0
 16 17  1  0
 17 18  1  0
 18 19  1  0
 17 20  1  0
 20 21  2  0
 21 22  1  0
 22 23  2  0
 23 24  1  0
 24 25  1  0
 25 26  1  0
 26 27  2  0
 26 28  2  0
 26 29  1  0
 29 30  2  0
 30 31  1  0
 31 32  2  0
 32 33  1  0
 33 34  3  0
 32 35  1  0
 35 36  2  0
 24 37  2  0
 16 38  1  0
 38 39  2  0
 38 40  1  0
 12  7  1  0
 36 29  1  0
 37 20  1  0
 40  4  1  0
  1 41  1  0
  1 42  1  0
  1 43  1  0
  2 44  1  0
  2 45  1  0
  3 46  1  0
  3 47  1  0
  5 48  1  0
  5 49  1  0
  6 50  1  0
  6 51  1  0
  8 52  1  0
  9 53  1  0
 10 54  1  0
 11 55  1  0
 12 56  1  0
 15 57  1  0
 17 58  1  0
 18 59  1  0
 18 60  1  0
 19 61  1  0
 19 62  1  0
 19 63  1  0
 21 64  1  0
 22 65  1  0
 23 66  1  0
 25 67  1  0
 30 68  1  0
 31 69  1  0
 35 70  1  0
 36 71  1  0
 37 72  1  0
M  END
$$$$
