
     RDKit          3D

 73 74  0  0  0  0  0  0  0  0999 V2000
   -5.1291   -0.9095    4.5208 C   0  0  0  0  0  0  0  0  0  0  0  0
   -4.8601   -1.5107    3.1800 C   0  0  0  0  0  0  0  0  0  0  0  0
   -5.3347   -2.6447    2.9001 O   0  0  0  0  0  0  0  0  0  0  0  0
   -4.0939   -0.7815    2.2108 N   0  0  0  0  0  0  0  0  0  0  0  0
   -3.8834   -1.2743    0.8432 C   0  0  1  0  0  0  0  0  0  0  0  0
   -5.0538   -0.8652   -0.0688 C   0  0  0  0  0  0  0  0  0  0  0  0
   -5.2250    0.6253   -0.1611 C   0  0  0  0  0  0  0  0  0  0  0  0
   -4.6033    1.3624   -1.2135 N   0  0  0  0  0  0  0  0  0  0  0  0
   -5.9036    1.2327    0.7096 O   0  0  0  0  0  0  0  0  0  0  0  0
   -2.5611   -0.8015    0.2856 C   0  0  0  0  0  0  0  0  0  0  0  0
   -2.0918    0.3084    0.6483 O   0  0  0  0  0  0  0  0  0  0  0  0
   -1.8769   -1.6061   -0.6914 N   0  0  0  0  0  0  0  0  0  0  0  0
   -0.6007   -1.2971   -1.3610 C   0  0  1  0  0  0  0  0  0  0  0  0
   -0.5319    0.1319   -1.9630 C   0  0  0  0  0  0  0  0  0  0  0  0
    0.1139    1.4377   -0.8590 S   0  0  0  0  0  0  0  0  0  0  0  0
   -0.2751    2.7742   -1.9879 C   0  0  0  0  0  0  0  0  0  0  0  0
    0.6633    3.1880   -2.9419 C   0  0  0  0  0  0  0  0  0  0  0  0
    0.3547    4.2326   -3.8192 C   0  0  0  0  0  0  0  0  0  0  0  0
   -0.8894    4.8672   -3.7421 C   0  0  0  0  0  0  0  0  0  0  0  0
   -1.8245    4.4596   -2.7854 C   0  0  0  0  0  0  0  0  0  0  0  0
   -1.5168    3.4163   -1.9067 C   0  0  0  0  0  0  0  0  0  0  0  0
    0.6434   -1.8177   -0.5770 C   0  0  2  0  0  0  0  0  0  0  0  0
    0.6184   -3.2253   -0.5857 O   0  0  0  0  0  0  0  0  0  0  0  0
    0.7523   -1.3351    0.8897 C   0  0  0  0  0  0  0  0  0  0  0  0
    1.7480   -2.1467    1.7023 C   0  0  0  0  0  0  0  0  0  0  0  0
    1.2487   -2.9984    2.7081 C   0  0  0  0  0  0  0  0  0  0  0  0
    2.1066   -3.8109    3.4500 C   0  0  0  0  0  0  0  0  0  0  0  0
    3.4755   -3.7980    3.1949 C   0  0  0  0  0  0  0  0  0  0  0  0
    3.9925   -2.9687    2.2000 C   0  0  0  0  0  0  0  0  0  0  0  0
    3.1482   -2.1289    1.4538 C   0  0  0  0  0  0  0  0  0  0  0  0
    3.7691   -1.2959    0.4050 C   0  0  0  0  0  0  0  0  0  0  0  0
    4.4603   -1.8627   -0.4831 O   0  0  0  0  0  0  0  0  0  0  0  0
    3.6490    0.1380    0.4369 N   0  0  0  0  0  0  0  0  0  0  0  0
    4.2714    1.0564   -0.5382 C   0  0  0  0  0  0  0  0  0  0  0  0
    3.8584    2.5041   -0.2010 C   0  0  0  0  0  0  0  0  0  0  0  0
    5.8066    0.9555   -0.4531 C   0  0  0  0  0  0  0  0  0  0  0  0
    3.7958    0.7302   -1.9687 C   0  0  0  0  0  0  0  0  0  0  0  0
   -4.1831   -0.5232    4.9545 H   0  0  0  0  0  0  0  0  0  0  0  0
   -5.5550   -1.6687    5.2109 H   0  0  0  0  0  0  0  0  0  0  0  0
   -5.8500   -0.0728    4.4121 H   0  0  0  0  0  0  0  0  0  0  0  0
   -3.8084    0.1944    2.4539 H   0  0  0  0  0  0  0  0  0  0  0  0
   -3.8469   -2.3858    0.8675 H   0  0  0  0  0  0  0  0  0  0  0  0
   -5.9933   -1.3132    0.3217 H   0  0  0  0  0  0  0  0  0  0  0  0
   -4.8961   -1.2847   -1.0864 H   0  0  0  0  0  0  0  0  0  0  0  0
   -4.7244    2.3977   -1.2738 H   0  0  0  0  0  0  0  0  0  0  0  0
   -4.0242    0.8782   -1.9346 H   0  0  0  0  0  0  0  0  0  0  0  0
   -2.3503   -2.4903   -0.9870 H   0  0  0  0  0  0  0  0  0  0  0  0
   -0.6065   -1.9277   -2.2806 H   0  0  0  0  0  0  0  0  0  0  0  0
    0.1330    0.1087   -2.8543 H   0  0  0  0  0  0  0  0  0  0  0  0
   -1.5447    0.4175   -2.3199 H   0  0  0  0  0  0  0  0  0  0  0  0
    1.6279    2.7026   -3.0065 H   0  0  0  0  0  0  0  0  0  0  0  0
    1.0791    4.5502   -4.5579 H   0  0  0  0  0  0  0  0  0  0  0  0
   -1.1275    5.6753   -4.4216 H   0  0  0  0  0  0  0  0  0  0  0  0
   -2.7861    4.9526   -2.7238 H   0  0  0  0  0  0  0  0  0  0  0  0
   -2.2414    3.1076   -1.1646 H   0  0  0  0  0  0  0  0  0  0  0  0
    1.5512   -1.4643   -1.1174 H   0  0  0  0  0  0  0  0  0  0  0  0
    1.0031   -3.5211   -1.4522 H   0  0  0  0  0  0  0  0  0  0  0  0
    1.0452   -0.2743    0.9397 H   0  0  0  0  0  0  0  0  0  0  0  0
   -0.2401   -1.4001    1.3753 H   0  0  0  0  0  0  0  0  0  0  0  0
    0.1866   -3.0440    2.9156 H   0  0  0  0  0  0  0  0  0  0  0  0
    1.7068   -4.4592    4.2191 H   0  0  0  0  0  0  0  0  0  0  0  0
    4.1381   -4.4345    3.7671 H   0  0  0  0  0  0  0  0  0  0  0  0
    5.0604   -2.9751    2.0159 H   0  0  0  0  0  0  0  0  0  0  0  0
    3.1462    0.5501    1.2558 H   0  0  0  0  0  0  0  0  0  0  0  0
    2.7549    2.6147   -0.2449 H   0  0  0  0  0  0  0  0  0  0  0  0
    4.1930    2.7755    0.8235 H   0  0  0  0  0  0  0  0  0  0  0  0
    4.3094    3.2244   -0.9175 H   0  0  0  0  0  0  0  0  0  0  0  0
    6.1664   -0.0464   -0.7641 H   0  0  0  0  0  0  0  0  0  0  0  0
    6.2853    1.7065   -1.1182 H   0  0  0  0  0  0  0  0  0  0  0  0
    6.1467    1.1390    0.5888 H   0  0  0  0  0  0  0  0  0  0  0  0
    4.1319    1.5131   -2.6824 H   0  0  0  0  0  0  0  0  0  0  0  0
    2.6895    0.6728   -2.0044 H   0  0  0  0  0  0  0  0  0  0  0  0
    4.2026   -0.2373   -2.3255 H   0  0  0  0  0  0  0  0  0  0  0  0
  1  2  1  0
  2  3  2  0
  2  4  1  0
  4  5  1  0
  5  6  1  0
  6  7  1  0
  7  8  1  0
  7  9  2  0
  5 10  1  0
 10 11  2  0
 10 12  1  0
 12 13  1  0
 13 14  1  0
 14 15  1  0
 15 16  1  0
 16 17  2  0
 17 18  1  0
 18 19  2  0
 19 20  1  0
 20 21  2  0
 13 22  1  0
 22 23  1  0
 22 24  1  0
 24 25  1  0
 25 26  2  0
 26 27  1  0
 27 28  2  0
 28 29  1  0
 29 30  2  0
 30 31  1  0
 31 32  2  0
 31 33  1  0
 33 34  1  0
 34 35  1  0
 34 36  1  0
 34 37  1  0
 21 16  1  0
 30 25  1  0
  1 38  1  0
  1 39  1  0
  1 40  1  0
  4 41  1  0
  5 42  1  1
  6 43  1  0
  6 44  1  0
  8 45  1  0
  8 46  1  0
 12 47  1  0
 13 48  1  6
 14 49  1  0
 14 50  1  0
 17 51  1  0
 18 52  1  0
 19 53  1  0
 20 54  1  0
 21 55  1  0
 22 56  1  6
 23 57  1  0
 24 58  1  0
 24 59  1  0
 26 60  1  0
 27 61  1  0
 28 62  1  0
 29 63  1  0
 33 64  1  0
 35 65  1  0
 35 66  1  0
 35 67  1  0
 36 68  1  0
 36 69  1  0
 36 70  1  0
 37 71  1  0
 37 72  1  0
 37 73  1  0
M  END
$$$$
