
     RDKit          3D

 80 83  0  0  0  0  0  0  0  0999 V2000
   -9.9106    2.9689   -0.2352 C   0  0  0  0  0  0  0  0  0  0  0  0
   -8.9407    2.8785    0.8033 O   0  0  0  0  0  0  0  0  0  0  0  0
   -7.5880    2.5693    0.5982 C   0  0  0  0  0  0  0  0  0  0  0  0
   -6.7429    2.5085    1.7126 C   0  0  0  0  0  0  0  0  0  0  0  0
   -5.3881    2.2002    1.5610 C   0  0  0  0  0  0  0  0  0  0  0  0
   -4.8614    1.9482    0.2872 C   0  0  0  0  0  0  0  0  0  0  0  0
   -3.1629    1.5311    0.0875 S   0  0  0  0  0  0  0  0  0  0  0  0
   -2.6379    2.2465   -1.1269 O   0  0  0  0  0  0  0  0  0  0  0  0
   -2.3910    1.9981    1.2911 O   0  0  0  0  0  0  0  0  0  0  0  0
   -2.9907   -0.2014   -0.1132 N   0  0  0  0  0  0  0  0  0  0  0  0
   -3.2896   -0.9633    1.1211 C   0  0  0  0  0  0  0  0  0  0  0  0
   -4.4191   -1.9934    0.8960 C   0  0  0  0  0  0  0  0  0  0  0  0
   -4.0283   -3.0660   -0.1283 C   0  0  0  0  0  0  0  0  0  0  0  0
   -5.7394   -1.3263    0.4968 C   0  0  0  0  0  0  0  0  0  0  0  0
   -1.7373   -0.5969   -0.8012 C   0  0  0  0  0  0  0  0  0  0  0  0
   -0.4205   -0.0432   -0.1832 C   0  0  1  0  0  0  0  0  0  0  0  0
   -0.2286   -0.5564    1.1100 O   0  0  0  0  0  0  0  0  0  0  0  0
    0.8073   -0.3788   -1.0741 C   0  0  2  0  0  0  0  0  0  0  0  0
    1.1959   -1.8788   -1.0628 C   0  0  0  0  0  0  0  0  0  0  0  0
    2.4345   -2.1472   -1.8815 C   0  0  0  0  0  0  0  0  0  0  0  0
    3.6452   -2.4866   -1.2536 C   0  0  0  0  0  0  0  0  0  0  0  0
    4.7947   -2.7163   -2.0158 C   0  0  0  0  0  0  0  0  0  0  0  0
    4.7447   -2.6109   -3.4080 C   0  0  0  0  0  0  0  0  0  0  0  0
    3.5439   -2.2791   -4.0411 C   0  0  0  0  0  0  0  0  0  0  0  0
    2.3918   -2.0488   -3.2827 C   0  0  0  0  0  0  0  0  0  0  0  0
    1.9474    0.4881   -0.7340 N   0  0  0  0  0  0  0  0  0  0  0  0
    2.6846    0.4555    0.4961 C   0  0  0  0  0  0  0  0  0  0  0  0
    2.4882   -0.4576    1.3427 O   0  0  0  0  0  0  0  0  0  0  0  0
    3.6439    1.4450    0.7372 O   0  0  0  0  0  0  0  0  0  0  0  0
    4.4971    1.4386    1.8834 C   0  0  2  0  0  0  0  0  0  0  0  0
    5.2008    2.7650    2.0490 C   0  0  0  0  0  0  0  0  0  0  0  0
    6.4030    2.5421    2.7458 O   0  0  0  0  0  0  0  0  0  0  0  0
    6.7909    1.2035    2.5139 C   0  0  2  0  0  0  0  0  0  0  0  0
    8.0168    1.2058    1.7957 O   0  0  0  0  0  0  0  0  0  0  0  0
    8.3531   -0.1101    1.3997 C   0  0  0  0  0  0  0  0  0  0  0  0
    7.3964   -0.6178    0.3055 C   0  0  0  0  0  0  0  0  0  0  0  0
    6.0710    0.1524    0.3218 C   0  0  0  0  0  0  0  0  0  0  0  0
    5.6529    0.4678    1.7720 C   0  0  2  0  0  0  0  0  0  0  0  0
   -5.7004    2.0115   -0.8323 C   0  0  0  0  0  0  0  0  0  0  0  0
   -7.0558    2.3186   -0.6813 C   0  0  0  0  0  0  0  0  0  0  0  0
   -9.6266    3.7659   -0.9545 H   0  0  0  0  0  0  0  0  0  0  0  0
  -10.8943    3.2251    0.2086 H   0  0  0  0  0  0  0  0  0  0  0  0
  -10.0001    1.9943   -0.7599 H   0  0  0  0  0  0  0  0  0  0  0  0
   -7.1399    2.6971    2.7020 H   0  0  0  0  0  0  0  0  0  0  0  0
   -4.7562    2.1479    2.4380 H   0  0  0  0  0  0  0  0  0  0  0  0
   -2.4019   -1.5144    1.4924 H   0  0  0  0  0  0  0  0  0  0  0  0
   -3.5958   -0.2887    1.9504 H   0  0  0  0  0  0  0  0  0  0  0  0
   -4.5902   -2.5108    1.8663 H   0  0  0  0  0  0  0  0  0  0  0  0
   -4.8094   -3.8549   -0.1682 H   0  0  0  0  0  0  0  0  0  0  0  0
   -3.0703   -3.5467    0.1636 H   0  0  0  0  0  0  0  0  0  0  0  0
   -3.9232   -2.6257   -1.1426 H   0  0  0  0  0  0  0  0  0  0  0  0
   -6.0406   -0.5829    1.2636 H   0  0  0  0  0  0  0  0  0  0  0  0
   -6.5450   -2.0879    0.4271 H   0  0  0  0  0  0  0  0  0  0  0  0
   -5.6447   -0.8247   -0.4889 H   0  0  0  0  0  0  0  0  0  0  0  0
   -1.8101   -0.2540   -1.8556 H   0  0  0  0  0  0  0  0  0  0  0  0
   -1.6798   -1.7031   -0.8479 H   0  0  0  0  0  0  0  0  0  0  0  0
   -0.4732    1.0684   -0.1570 H   0  0  0  0  0  0  0  0  0  0  0  0
   -0.5243    0.1385    1.7537 H   0  0  0  0  0  0  0  0  0  0  0  0
    0.5211   -0.1314   -2.1215 H   0  0  0  0  0  0  0  0  0  0  0  0
    1.3346   -2.2424   -0.0232 H   0  0  0  0  0  0  0  0  0  0  0  0
    0.3685   -2.4803   -1.4940 H   0  0  0  0  0  0  0  0  0  0  0  0
    3.7022   -2.5686   -0.1754 H   0  0  0  0  0  0  0  0  0  0  0  0
    5.7254   -2.9724   -1.5261 H   0  0  0  0  0  0  0  0  0  0  0  0
    5.6360   -2.7872   -3.9962 H   0  0  0  0  0  0  0  0  0  0  0  0
    3.5058   -2.1993   -5.1198 H   0  0  0  0  0  0  0  0  0  0  0  0
    1.4679   -1.7924   -3.7860 H   0  0  0  0  0  0  0  0  0  0  0  0
    2.2351    1.2038   -1.4391 H   0  0  0  0  0  0  0  0  0  0  0  0
    3.9078    1.2300    2.8058 H   0  0  0  0  0  0  0  0  0  0  0  0
    4.5625    3.4734    2.6188 H   0  0  0  0  0  0  0  0  0  0  0  0
    5.4332    3.2143    1.0579 H   0  0  0  0  0  0  0  0  0  0  0  0
    6.9483    0.7263    3.5079 H   0  0  0  0  0  0  0  0  0  0  0  0
    9.3905   -0.1076    1.0033 H   0  0  0  0  0  0  0  0  0  0  0  0
    8.3473   -0.8022    2.2736 H   0  0  0  0  0  0  0  0  0  0  0  0
    7.2006   -1.7006    0.4653 H   0  0  0  0  0  0  0  0  0  0  0  0
    7.8677   -0.5022   -0.6949 H   0  0  0  0  0  0  0  0  0  0  0  0
    6.1973    1.0990   -0.2497 H   0  0  0  0  0  0  0  0  0  0  0  0
    5.2900   -0.4504   -0.1835 H   0  0  0  0  0  0  0  0  0  0  0  0
    5.4003   -0.4843    2.2912 H   0  0  0  0  0  0  0  0  0  0  0  0
   -5.3074    1.8115   -1.8211 H   0  0  0  0  0  0  0  0  0  0  0  0
   -7.6803    2.3554   -1.5633 H   0  0  0  0  0  0  0  0  0  0  0  0
  1  2  1  0
  2  3  1  0
  3  4  2  0
  4  5  1  0
  5  6  2  0
  6  7  1  0
  7  8  2  0
  7  9  2  0
  7 10  1  0
 10 11  1  0
 11 12  1  0
 12 13  1  0
 12 14  1  0
 10 15  1  0
 15 16  1  0
 16 17  1  0
 16 18  1  0
 18 19  1  0
 19 20  1  0
 20 21  2  0
 21 22  1  0
 22 23  2  0
 23 24  1  0
 24 25  2  0
 18 26  1  0
 26 27  1  0
 27 28  2  0
 27 29  1  0
 29 30  1  0
 30 31  1  0
 31 32  1  0
 32 33  1  0
 33 34  1  0
 34 35  1  0
 35 36  1  0
 36 37  1  0
 37 38  1  0
  6 39  1  0
 39 40  2  0
 25 20  1  0
 38 30  1  0
 38 33  1  0
 40  3  1  0
  1 41  1  0
  1 42  1  0
  1 43  1  0
  4 44  1  0
  5 45  1  0
 11 46  1  0
 11 47  1  0
 12 48  1  0
 13 49  1  0
 13 50  1  0
 13 51  1  0
 14 52  1  0
 14 53  1  0
 14 54  1  0
 15 55  1  0
 15 56  1  0
 16 57  1  1
 17 58  1  0
 18 59  1  6
 19 60  1  0
 19 61  1  0
 21 62  1  0
 22 63  1  0
 23 64  1  0
 24 65  1  0
 25 66  1  0
 26 67  1  0
 30 68  1  1
 31 69  1  0
 31 70  1  0
 33 71  1  1
 35 72  1  0
 35 73  1  0
 36 74  1  0
 36 75  1  0
 37 76  1  0
 37 77  1  0
 38 78  1  1
 39 79  1  0
 40 80  1  0
M  END
$$$$
