
     RDKit          3D

 79 80  0  0  0  0  0  0  0  0999 V2000
    9.2889    0.4227   -1.9850 C   0  0  0  0  0  0  0  0  0  0  0  0
    7.8420    0.8738   -1.7210 C   0  0  0  0  0  0  0  0  0  0  0  0
    7.4233    1.8784   -2.8095 C   0  0  0  0  0  0  0  0  0  0  0  0
    7.6764    1.4827   -0.2953 C   0  0  2  0  0  0  0  0  0  0  0  0
    8.0768    0.5006    0.8181 C   0  0  0  0  0  0  0  0  0  0  0  0
    6.2603    1.9548   -0.0529 C   0  0  0  0  0  0  0  0  0  0  0  0
    6.0544    3.1797    0.1648 O   0  0  0  0  0  0  0  0  0  0  0  0
    5.1641    1.0230   -0.0739 N   0  0  0  0  0  0  0  0  0  0  0  0
    3.7938    1.3900    0.1596 C   0  0  0  0  0  0  0  0  0  0  0  0
    3.4898    2.5796    0.4484 O   0  0  0  0  0  0  0  0  0  0  0  0
    2.7122    0.3348    0.1176 C   0  0  2  0  0  0  0  0  0  0  0  0
    1.6175    0.7878   -0.6389 O   0  0  0  0  0  0  0  0  0  0  0  0
    2.2864   -0.0900    1.5521 C   0  0  2  0  0  0  0  0  0  0  0  0
    3.4291   -0.4165    2.3091 O   0  0  0  0  0  0  0  0  0  0  0  0
    1.2605   -1.2768    1.5518 C   0  0  1  0  0  0  0  0  0  0  0  0
    1.6336   -2.2646    2.4847 O   0  0  0  0  0  0  0  0  0  0  0  0
   -0.1917   -0.8134    1.8314 C   0  0  1  0  0  0  0  0  0  0  0  0
   -0.6059    0.1185    0.8304 O   0  0  0  0  0  0  0  0  0  0  0  0
   -1.8342    0.7981    0.8068 C   0  0  0  0  0  0  0  0  0  0  0  0
   -2.1850    1.4868   -0.3577 C   0  0  0  0  0  0  0  0  0  0  0  0
   -3.4182    2.1360   -0.4568 C   0  0  0  0  0  0  0  0  0  0  0  0
   -4.3259    2.1119    0.6184 C   0  0  0  0  0  0  0  0  0  0  0  0
   -5.6495    2.7778    0.5272 C   0  0  0  0  0  0  0  0  0  0  0  0
   -6.3345    2.8933   -0.6968 C   0  0  0  0  0  0  0  0  0  0  0  0
   -7.5820    3.5199   -0.7307 C   0  0  0  0  0  0  0  0  0  0  0  0
   -8.1420    4.0203    0.4446 C   0  0  0  0  0  0  0  0  0  0  0  0
   -7.4443    3.8808    1.6448 C   0  0  0  0  0  0  0  0  0  0  0  0
   -6.2306    3.2683    1.6593 N   0  0  0  0  0  0  0  0  0  0  0  0
   -3.9537    1.4532    1.8033 C   0  0  0  0  0  0  0  0  0  0  0  0
   -2.7217    0.7999    1.8979 C   0  0  0  0  0  0  0  0  0  0  0  0
   -1.1251   -1.9992    1.8408 C   0  0  0  0  0  0  0  0  0  0  0  0
   -1.4163   -2.5456    2.9392 O   0  0  0  0  0  0  0  0  0  0  0  0
   -1.6587   -2.5067    0.6071 N   0  0  0  0  0  0  0  0  0  0  0  0
   -2.8002   -3.3757    0.5315 C   0  0  0  0  0  0  0  0  0  0  0  0
   -3.3110   -3.8542    1.5815 O   0  0  0  0  0  0  0  0  0  0  0  0
   -3.4403   -3.6646   -0.8076 C   0  0  1  0  0  0  0  0  0  0  0  0
   -3.5991   -5.1851   -0.9745 C   0  0  0  0  0  0  0  0  0  0  0  0
   -4.7928   -2.9027   -0.9517 C   0  0  0  0  0  0  0  0  0  0  0  0
   -4.6033   -1.3851   -0.7710 C   0  0  0  0  0  0  0  0  0  0  0  0
   -5.4569   -3.1655   -2.3142 C   0  0  0  0  0  0  0  0  0  0  0  0
    9.4034    0.0797   -3.0357 H   0  0  0  0  0  0  0  0  0  0  0  0
    9.5577   -0.4352   -1.3347 H   0  0  0  0  0  0  0  0  0  0  0  0
    9.9996    1.2573   -1.8035 H   0  0  0  0  0  0  0  0  0  0  0  0
    7.1895   -0.0217   -1.8171 H   0  0  0  0  0  0  0  0  0  0  0  0
    7.5719    1.4399   -3.8194 H   0  0  0  0  0  0  0  0  0  0  0  0
    6.3468    2.1336   -2.7172 H   0  0  0  0  0  0  0  0  0  0  0  0
    8.0233    2.8105   -2.7322 H   0  0  0  0  0  0  0  0  0  0  0  0
    8.3537    2.3633   -0.2138 H   0  0  0  0  0  0  0  0  0  0  0  0
    9.1752    0.3418    0.8213 H   0  0  0  0  0  0  0  0  0  0  0  0
    7.5705   -0.4792    0.6861 H   0  0  0  0  0  0  0  0  0  0  0  0
    7.8038    0.9127    1.8137 H   0  0  0  0  0  0  0  0  0  0  0  0
    5.3753    0.0176   -0.2605 H   0  0  0  0  0  0  0  0  0  0  0  0
    3.1198   -0.5591   -0.4025 H   0  0  0  0  0  0  0  0  0  0  0  0
    1.2468    1.5910   -0.1877 H   0  0  0  0  0  0  0  0  0  0  0  0
    1.8219    0.7919    2.0462 H   0  0  0  0  0  0  0  0  0  0  0  0
    3.8930   -1.1619    1.8442 H   0  0  0  0  0  0  0  0  0  0  0  0
    1.2723   -1.7637    0.5515 H   0  0  0  0  0  0  0  0  0  0  0  0
    1.5690   -1.8606    3.3900 H   0  0  0  0  0  0  0  0  0  0  0  0
   -0.2172   -0.3133    2.8253 H   0  0  0  0  0  0  0  0  0  0  0  0
   -1.5033    1.5047   -1.1987 H   0  0  0  0  0  0  0  0  0  0  0  0
   -3.6502    2.6665   -1.3706 H   0  0  0  0  0  0  0  0  0  0  0  0
   -5.9276    2.4847   -1.6122 H   0  0  0  0  0  0  0  0  0  0  0  0
   -8.1174    3.6111   -1.6670 H   0  0  0  0  0  0  0  0  0  0  0  0
   -9.1092    4.5057    0.4269 H   0  0  0  0  0  0  0  0  0  0  0  0
   -7.8676    4.2582    2.5660 H   0  0  0  0  0  0  0  0  0  0  0  0
   -4.6263    1.4227    2.6515 H   0  0  0  0  0  0  0  0  0  0  0  0
   -2.4762    0.2922    2.8198 H   0  0  0  0  0  0  0  0  0  0  0  0
   -1.2614   -2.1373   -0.2858 H   0  0  0  0  0  0  0  0  0  0  0  0
   -2.7547   -3.3188   -1.6129 H   0  0  0  0  0  0  0  0  0  0  0  0
   -2.6455   -5.7007   -0.7287 H   0  0  0  0  0  0  0  0  0  0  0  0
   -4.3982   -5.5742   -0.3075 H   0  0  0  0  0  0  0  0  0  0  0  0
   -3.8456   -5.4403   -2.0259 H   0  0  0  0  0  0  0  0  0  0  0  0
   -5.4919   -3.2537   -0.1598 H   0  0  0  0  0  0  0  0  0  0  0  0
   -5.5656   -0.8499   -0.9187 H   0  0  0  0  0  0  0  0  0  0  0  0
   -3.8604   -0.9933   -1.4984 H   0  0  0  0  0  0  0  0  0  0  0  0
   -4.2573   -1.1549    0.2574 H   0  0  0  0  0  0  0  0  0  0  0  0
   -6.3676   -2.5396   -2.4299 H   0  0  0  0  0  0  0  0  0  0  0  0
   -4.7558   -2.9310   -3.1437 H   0  0  0  0  0  0  0  0  0  0  0  0
   -5.7810   -4.2235   -2.3959 H   0  0  0  0  0  0  0  0  0  0  0  0
  1  2  1  0
  2  3  1  0
  2  4  1  0
  4  5  1  0
  4  6  1  0
  6  7  2  0
  6  8  1  0
  8  9  1  0
  9 10  2  0
  9 11  1  0
 11 12  1  0
 11 13  1  0
 13 14  1  0
 13 15  1  0
 15 16  1  0
 15 17  1  0
 17 18  1  0
 18 19  1  0
 19 20  2  0
 20 21  1  0
 21 22  2  0
 22 23  1  0
 23 24  2  0
 24 25  1  0
 25 26  2  0
 26 27  1  0
 27 28  2  0
 22 29  1  0
 29 30  2  0
 17 31  1  0
 31 32  2  0
 31 33  1  0
 33 34  1  0
 34 35  2  0
 34 36  1  0
 36 37  1  0
 36 38  1  0
 38 39  1  0
 38 40  1  0
 28 23  1  0
 30 19  1  0
  1 41  1  0
  1 42  1  0
  1 43  1  0
  2 44  1  0
  3 45  1  0
  3 46  1  0
  3 47  1  0
  4 48  1  6
  5 49  1  0
  5 50  1  0
  5 51  1  0
  8 52  1  0
 11 53  1  6
 12 54  1  0
 13 55  1  1
 14 56  1  0
 15 57  1  6
 16 58  1  0
 17 59  1  1
 20 60  1  0
 21 61  1  0
 24 62  1  0
 25 63  1  0
 26 64  1  0
 27 65  1  0
 29 66  1  0
 30 67  1  0
 33 68  1  0
 36 69  1  6
 37 70  1  0
 37 71  1  0
 37 72  1  0
 38 73  1  0
 39 74  1  0
 39 75  1  0
 39 76  1  0
 40 77  1  0
 40 78  1  0
 40 79  1  0
M  END
$$$$
