
     RDKit          3D

 63 66  0  0  0  0  0  0  0  0999 V2000
   -1.7929    2.9306   -1.7896 C   0  0  0  0  0  0  0  0  0  0  0  0
   -1.0543    2.9905   -0.4480 C   0  0  0  0  0  0  0  0  0  0  0  0
   -0.4271    1.6459    0.0092 C   0  0  0  0  0  0  0  0  0  0  0  0
    0.8625    1.2184   -0.6991 C   0  0  0  0  0  0  0  0  0  0  0  0
    1.4725    1.9707   -1.7248 C   0  0  0  0  0  0  0  0  0  0  0  0
    2.6584    1.5325   -2.3163 C   0  0  0  0  0  0  0  0  0  0  0  0
    3.2682    0.3538   -1.8883 C   0  0  0  0  0  0  0  0  0  0  0  0
    2.7026   -0.3980   -0.8450 C   0  0  0  0  0  0  0  0  0  0  0  0
    3.3125   -1.6091   -0.3629 N   0  0  0  0  0  0  0  0  0  0  0  0
    4.9166   -2.1209   -0.7844 S   0  0  0  0  0  0  0  0  0  0  0  0
    4.9448   -2.4998   -2.2390 O   0  0  0  0  0  0  0  0  0  0  0  0
    5.2867   -3.3207    0.0407 O   0  0  0  0  0  0  0  0  0  0  0  0
    6.0675   -0.8300   -0.4534 C   0  0  0  0  0  0  0  0  0  0  0  0
    7.1493   -0.6042   -1.3160 C   0  0  0  0  0  0  0  0  0  0  0  0
    8.0529    0.4305   -1.0541 C   0  0  0  0  0  0  0  0  0  0  0  0
    7.8816    1.2439    0.0733 C   0  0  0  0  0  0  0  0  0  0  0  0
    8.8107    2.3100    0.3421 C   0  0  0  0  0  0  0  0  0  0  0  0
    9.5577    3.1671    0.5581 N   0  0  0  0  0  0  0  0  0  0  0  0
    6.8043    1.0164    0.9392 C   0  0  0  0  0  0  0  0  0  0  0  0
    5.9016   -0.0187    0.6773 C   0  0  0  0  0  0  0  0  0  0  0  0
    1.5070    0.0445   -0.2589 C   0  0  0  0  0  0  0  0  0  0  0  0
   -1.4827    0.5312    0.0624 C   0  0  0  0  0  0  0  0  0  0  0  0
   -2.2908    0.3309    1.2104 C   0  0  0  0  0  0  0  0  0  0  0  0
   -2.2355    1.1879    2.3167 O   0  0  0  0  0  0  0  0  0  0  0  0
   -3.1996   -0.7458    1.2485 C   0  0  0  0  0  0  0  0  0  0  0  0
   -4.1066   -0.9301    2.4480 C   0  0  0  0  0  0  0  0  0  0  0  0
   -5.4583   -0.2288    2.2066 C   0  0  0  0  0  0  0  0  0  0  0  0
   -6.6691   -1.1765    2.1654 C   0  0  0  0  0  0  0  0  0  0  0  0
   -6.5187   -2.4546    1.3146 C   0  0  0  0  0  0  0  0  0  0  0  0
   -5.7872   -2.2730   -0.0337 C   0  0  0  0  0  0  0  0  0  0  0  0
   -4.3036   -2.7040    0.0152 C   0  0  0  0  0  0  0  0  0  0  0  0
   -3.3456   -1.5424    0.0933 C   0  0  0  0  0  0  0  0  0  0  0  0
   -2.6177   -1.2820   -0.9848 O   0  0  0  0  0  0  0  0  0  0  0  0
   -1.7229   -0.3074   -1.0510 C   0  0  0  0  0  0  0  0  0  0  0  0
   -1.0972   -0.1446   -2.1319 O   0  0  0  0  0  0  0  0  0  0  0  0
   -1.1570    2.5032   -2.5898 H   0  0  0  0  0  0  0  0  0  0  0  0
   -2.0909    3.9569   -2.0905 H   0  0  0  0  0  0  0  0  0  0  0  0
   -2.7157    2.3205   -1.6958 H   0  0  0  0  0  0  0  0  0  0  0  0
   -0.2765    3.7827   -0.4803 H   0  0  0  0  0  0  0  0  0  0  0  0
   -1.7874    3.3223    0.3183 H   0  0  0  0  0  0  0  0  0  0  0  0
   -0.0666    1.8279    1.0418 H   0  0  0  0  0  0  0  0  0  0  0  0
    1.0529    2.8988   -2.0803 H   0  0  0  0  0  0  0  0  0  0  0  0
    3.1097    2.1129   -3.1109 H   0  0  0  0  0  0  0  0  0  0  0  0
    4.1794    0.0417   -2.3772 H   0  0  0  0  0  0  0  0  0  0  0  0
    2.8043   -2.1863    0.3441 H   0  0  0  0  0  0  0  0  0  0  0  0
    7.2933   -1.2253   -2.1906 H   0  0  0  0  0  0  0  0  0  0  0  0
    8.8835    0.5962   -1.7298 H   0  0  0  0  0  0  0  0  0  0  0  0
    6.6625    1.6383    1.8149 H   0  0  0  0  0  0  0  0  0  0  0  0
    5.0724   -0.1850    1.3533 H   0  0  0  0  0  0  0  0  0  0  0  0
    1.0730   -0.5307    0.5505 H   0  0  0  0  0  0  0  0  0  0  0  0
   -1.7272    2.0597    2.3453 H   0  0  0  0  0  0  0  0  0  0  0  0
   -4.2254   -2.0057    2.6863 H   0  0  0  0  0  0  0  0  0  0  0  0
   -3.6343   -0.5062    3.3600 H   0  0  0  0  0  0  0  0  0  0  0  0
   -5.6297    0.5045    3.0250 H   0  0  0  0  0  0  0  0  0  0  0  0
   -5.4411    0.3739    1.2711 H   0  0  0  0  0  0  0  0  0  0  0  0
   -6.9182   -1.4808    3.2056 H   0  0  0  0  0  0  0  0  0  0  0  0
   -7.5399   -0.5986    1.7851 H   0  0  0  0  0  0  0  0  0  0  0  0
   -7.5464   -2.8243    1.1030 H   0  0  0  0  0  0  0  0  0  0  0  0
   -6.0478   -3.2563    1.9225 H   0  0  0  0  0  0  0  0  0  0  0  0
   -5.9018   -1.2385   -0.4241 H   0  0  0  0  0  0  0  0  0  0  0  0
   -6.2968   -2.9287   -0.7743 H   0  0  0  0  0  0  0  0  0  0  0  0
   -4.0800   -3.2652   -0.9191 H   0  0  0  0  0  0  0  0  0  0  0  0
   -4.0958   -3.4217    0.8363 H   0  0  0  0  0  0  0  0  0  0  0  0
  1  2  1  0
  2  3  1  0
  3  4  1  0
  4  5  2  0
  5  6  1  0
  6  7  2  0
  7  8  1  0
  8  9  1  0
  9 10  1  0
 10 11  2  0
 10 12  2  0
 10 13  1  0
 13 14  2  0
 14 15  1  0
 15 16  2  0
 16 17  1  0
 17 18  3  0
 16 19  1  0
 19 20  2  0
  8 21  2  0
  3 22  1  0
 22 23  2  0
 23 24  1  0
 23 25  1  0
 25 26  1  0
 26 27  1  0
 27 28  1  0
 28 29  1  0
 29 30  1  0
 30 31  1  0
 31 32  1  0
 32 33  1  0
 33 34  1  0
 34 35  2  0
 20 13  1  0
 21  4  1  0
 32 25  2  0
 34 22  1  0
  1 36  1  0
  1 37  1  0
  1 38  1  0
  2 39  1  0
  2 40  1  0
  3 41  1  0
  5 42  1  0
  6 43  1  0
  7 44  1  0
  9 45  1  0
 14 46  1  0
 15 47  1  0
 19 48  1  0
 20 49  1  0
 21 50  1  0
 24 51  1  0
 26 52  1  0
 26 53  1  0
 27 54  1  0
 27 55  1  0
 28 56  1  0
 28 57  1  0
 29 58  1  0
 29 59  1  0
 30 60  1  0
 30 61  1  0
 31 62  1  0
 31 63  1  0
M  END
$$$$
