
     RDKit          3D

 77 81  0  0  0  0  0  0  0  0999 V2000
    5.8103    0.8059    1.3952 C   0  0  0  0  0  0  0  0  0  0  0  0
    4.5482    1.0350    0.5420 C   0  0  0  0  0  0  0  0  0  0  0  0
    4.5777    2.4786   -0.0009 C   0  0  0  0  0  0  0  0  0  0  0  0
    3.2805    0.8649    1.4022 C   0  0  0  0  0  0  0  0  0  0  0  0
    4.5231    0.0940   -0.5948 N   0  0  0  0  0  0  0  0  0  0  0  0
    4.3964   -1.3345   -0.4757 C   0  0  0  0  0  0  0  0  0  0  0  0
    4.5042   -1.9012    0.6441 O   0  0  0  0  0  0  0  0  0  0  0  0
    4.1398   -2.1508   -1.6777 C   0  0  0  0  0  0  0  0  0  0  0  0
    5.0644   -2.0982   -2.7330 C   0  0  0  0  0  0  0  0  0  0  0  0
    4.8576   -2.8441   -3.8944 C   0  0  0  0  0  0  0  0  0  0  0  0
    3.7199   -3.6404   -4.0206 C   0  0  0  0  0  0  0  0  0  0  0  0
    2.7820   -3.6913   -2.9875 C   0  0  0  0  0  0  0  0  0  0  0  0
    2.9784   -2.9569   -1.8039 C   0  0  0  0  0  0  0  0  0  0  0  0
    1.8903   -2.9675   -0.7502 C   0  0  0  0  0  0  0  0  0  0  0  0
    1.0150   -1.7031   -0.8455 C   0  0  1  0  0  0  0  0  0  0  0  0
    0.2688   -1.7378   -2.0368 O   0  0  0  0  0  0  0  0  0  0  0  0
    0.0975   -1.5343    0.3948 C   0  0  2  0  0  0  0  0  0  0  0  0
   -0.8470   -2.7200    0.7097 C   0  0  0  0  0  0  0  0  0  0  0  0
   -1.7730   -3.4138   -0.7163 S   0  0  0  0  0  0  0  0  0  0  0  0
   -3.1815   -2.3028   -0.6348 C   0  0  0  0  0  0  0  0  0  0  0  0
   -3.3394   -1.3095   -1.6081 C   0  0  0  0  0  0  0  0  0  0  0  0
   -4.4579   -0.4724   -1.5890 C   0  0  0  0  0  0  0  0  0  0  0  0
   -5.4375   -0.6290   -0.5976 C   0  0  0  0  0  0  0  0  0  0  0  0
   -6.5586    0.2140   -0.5593 C   0  0  0  0  0  0  0  0  0  0  0  0
   -7.5227    0.0534    0.4398 C   0  0  0  0  0  0  0  0  0  0  0  0
   -7.3778   -0.9488    1.4029 C   0  0  0  0  0  0  0  0  0  0  0  0
   -6.2672   -1.7971    1.3746 C   0  0  0  0  0  0  0  0  0  0  0  0
   -5.2896   -1.6444    0.3794 C   0  0  0  0  0  0  0  0  0  0  0  0
   -4.1654   -2.4838    0.3449 C   0  0  0  0  0  0  0  0  0  0  0  0
   -0.6608   -0.2821    0.3068 N   0  0  0  0  0  0  0  0  0  0  0  0
   -0.7118    0.6807    1.3720 C   0  0  0  0  0  0  0  0  0  0  0  0
    0.0208    0.5500    2.3899 O   0  0  0  0  0  0  0  0  0  0  0  0
   -1.6494    1.8182    1.2929 C   0  0  0  0  0  0  0  0  0  0  0  0
   -3.0059    1.5412    1.0791 C   0  0  0  0  0  0  0  0  0  0  0  0
   -3.9320    2.5816    1.0273 C   0  0  0  0  0  0  0  0  0  0  0  0
   -3.5243    3.8665    1.1825 N   0  0  0  0  0  0  0  0  0  0  0  0
   -2.2187    4.1852    1.3868 C   0  0  0  0  0  0  0  0  0  0  0  0
   -1.8496    5.5277    1.5300 C   0  0  0  0  0  0  0  0  0  0  0  0
   -0.5096    5.8708    1.7195 C   0  0  0  0  0  0  0  0  0  0  0  0
    0.4692    4.8762    1.7614 C   0  0  0  0  0  0  0  0  0  0  0  0
    0.1144    3.5315    1.6225 C   0  0  0  0  0  0  0  0  0  0  0  0
   -1.2359    3.1643    1.4451 C   0  0  0  0  0  0  0  0  0  0  0  0
    5.8919    1.5805    2.1882 H   0  0  0  0  0  0  0  0  0  0  0  0
    5.7899   -0.1829    1.8963 H   0  0  0  0  0  0  0  0  0  0  0  0
    6.7192    0.8567    0.7579 H   0  0  0  0  0  0  0  0  0  0  0  0
    3.6786    2.6772   -0.6237 H   0  0  0  0  0  0  0  0  0  0  0  0
    4.5958    3.2165    0.8305 H   0  0  0  0  0  0  0  0  0  0  0  0
    5.4796    2.6381   -0.6307 H   0  0  0  0  0  0  0  0  0  0  0  0
    3.2482   -0.1299    1.8912 H   0  0  0  0  0  0  0  0  0  0  0  0
    2.3743    0.9706    0.7692 H   0  0  0  0  0  0  0  0  0  0  0  0
    3.2438    1.6344    2.2032 H   0  0  0  0  0  0  0  0  0  0  0  0
    4.5155    0.4849   -1.5652 H   0  0  0  0  0  0  0  0  0  0  0  0
    5.9527   -1.4831   -2.6526 H   0  0  0  0  0  0  0  0  0  0  0  0
    5.5793   -2.8014   -4.7000 H   0  0  0  0  0  0  0  0  0  0  0  0
    3.5583   -4.2115   -4.9257 H   0  0  0  0  0  0  0  0  0  0  0  0
    1.8932   -4.2964   -3.1173 H   0  0  0  0  0  0  0  0  0  0  0  0
    2.3426   -3.0486    0.2590 H   0  0  0  0  0  0  0  0  0  0  0  0
    1.2536   -3.8708   -0.8705 H   0  0  0  0  0  0  0  0  0  0  0  0
    1.6970   -0.8201   -0.8596 H   0  0  0  0  0  0  0  0  0  0  0  0
    0.1861   -0.8039   -2.3632 H   0  0  0  0  0  0  0  0  0  0  0  0
    0.7873   -1.4652    1.2653 H   0  0  0  0  0  0  0  0  0  0  0  0
   -0.2365   -3.5502    1.1238 H   0  0  0  0  0  0  0  0  0  0  0  0
   -1.5517   -2.4295    1.5182 H   0  0  0  0  0  0  0  0  0  0  0  0
   -2.5960   -1.1872   -2.3853 H   0  0  0  0  0  0  0  0  0  0  0  0
   -4.5560    0.2963   -2.3461 H   0  0  0  0  0  0  0  0  0  0  0  0
   -6.6858    0.9979   -1.2964 H   0  0  0  0  0  0  0  0  0  0  0  0
   -8.3844    0.7077    0.4679 H   0  0  0  0  0  0  0  0  0  0  0  0
   -8.1281   -1.0681    2.1738 H   0  0  0  0  0  0  0  0  0  0  0  0
   -6.1706   -2.5676    2.1303 H   0  0  0  0  0  0  0  0  0  0  0  0
   -4.0476   -3.2712    1.0801 H   0  0  0  0  0  0  0  0  0  0  0  0
   -1.2277   -0.0947   -0.5476 H   0  0  0  0  0  0  0  0  0  0  0  0
   -3.3472    0.5198    0.9807 H   0  0  0  0  0  0  0  0  0  0  0  0
   -4.9804    2.3661    0.8712 H   0  0  0  0  0  0  0  0  0  0  0  0
   -2.6002    6.3075    1.4894 H   0  0  0  0  0  0  0  0  0  0  0  0
   -0.2281    6.9104    1.8271 H   0  0  0  0  0  0  0  0  0  0  0  0
    1.5081    5.1482    1.8980 H   0  0  0  0  0  0  0  0  0  0  0  0
    0.9027    2.7935    1.6432 H   0  0  0  0  0  0  0  0  0  0  0  0
  1  2  1  0
  2  3  1  0
  2  4  1  0
  2  5  1  0
  5  6  1  0
  6  7  2  0
  6  8  1  0
  8  9  2  0
  9 10  1  0
 10 11  2  0
 11 12  1  0
 12 13  2  0
 13 14  1  0
 14 15  1  0
 15 16  1  0
 15 17  1  0
 17 18  1  0
 18 19  1  0
 19 20  1  0
 20 21  2  0
 21 22  1  0
 22 23  2  0
 23 24  1  0
 24 25  2  0
 25 26  1  0
 26 27  2  0
 27 28  1  0
 28 29  2  0
 17 30  1  0
 30 31  1  0
 31 32  2  0
 31 33  1  0
 33 34  2  0
 34 35  1  0
 35 36  2  0
 36 37  1  0
 37 38  2  0
 38 39  1  0
 39 40  2  0
 40 41  1  0
 41 42  2  0
 13  8  1  0
 28 23  1  0
 29 20  1  0
 42 33  1  0
 42 37  1  0
  1 43  1  0
  1 44  1  0
  1 45  1  0
  3 46  1  0
  3 47  1  0
  3 48  1  0
  4 49  1  0
  4 50  1  0
  4 51  1  0
  5 52  1  0
  9 53  1  0
 10 54  1  0
 11 55  1  0
 12 56  1  0
 14 57  1  0
 14 58  1  0
 15 59  1  6
 16 60  1  0
 17 61  1  1
 18 62  1  0
 18 63  1  0
 21 64  1  0
 22 65  1  0
 24 66  1  0
 25 67  1  0
 26 68  1  0
 27 69  1  0
 29 70  1  0
 30 71  1  0
 34 72  1  0
 35 73  1  0
 38 74  1  0
 39 75  1  0
 40 76  1  0
 41 77  1  0
M  END
$$$$
