
     RDKit          3D

 77 81  0  0  0  0  0  0  0  0999 V2000
    1.3555    3.2811   -1.0825 C   0  0  0  0  0  0  0  0  0  0  0  0
    2.8109    2.8714   -1.3708 C   0  0  0  0  0  0  0  0  0  0  0  0
    3.1107    2.9889   -2.8779 C   0  0  0  0  0  0  0  0  0  0  0  0
    3.7463    3.8323   -0.6086 C   0  0  0  0  0  0  0  0  0  0  0  0
    3.0573    1.4916   -0.9057 N   0  0  0  0  0  0  0  0  0  0  0  0
    2.3961    0.3171   -1.4115 C   0  0  0  0  0  0  0  0  0  0  0  0
    1.4897    0.4089   -2.2818 O   0  0  0  0  0  0  0  0  0  0  0  0
    2.8294   -1.0222   -0.9711 C   0  0  0  0  0  0  0  0  0  0  0  0
    3.3604   -1.8905   -1.9389 C   0  0  0  0  0  0  0  0  0  0  0  0
    3.8263   -3.1557   -1.5798 C   0  0  0  0  0  0  0  0  0  0  0  0
    3.7645   -3.5712   -0.2511 C   0  0  0  0  0  0  0  0  0  0  0  0
    3.2226   -2.7291    0.7208 C   0  0  0  0  0  0  0  0  0  0  0  0
    2.7386   -1.4524    0.3794 C   0  0  0  0  0  0  0  0  0  0  0  0
    2.0496   -0.6378    1.4578 C   0  0  0  0  0  0  0  0  0  0  0  0
    0.6440   -1.1988    1.8039 C   0  0  1  0  0  0  0  0  0  0  0  0
    0.1380   -0.6180    2.9808 O   0  0  0  0  0  0  0  0  0  0  0  0
   -0.3804   -1.0938    0.6337 C   0  0  2  0  0  0  0  0  0  0  0  0
   -0.8669    0.3468    0.3468 C   0  0  0  0  0  0  0  0  0  0  0  0
   -2.0629    0.9954    1.5792 S   0  0  0  0  0  0  0  0  0  0  0  0
   -1.6734    2.7162    1.2568 C   0  0  0  0  0  0  0  0  0  0  0  0
   -0.7859    3.3959    2.0986 C   0  0  0  0  0  0  0  0  0  0  0  0
   -0.4488    4.7270    1.8398 C   0  0  0  0  0  0  0  0  0  0  0  0
   -0.9916    5.3873    0.7275 C   0  0  0  0  0  0  0  0  0  0  0  0
   -0.6407    6.7157    0.4420 C   0  0  0  0  0  0  0  0  0  0  0  0
   -1.1803    7.3587   -0.6757 C   0  0  0  0  0  0  0  0  0  0  0  0
   -2.0722    6.6838   -1.5135 C   0  0  0  0  0  0  0  0  0  0  0  0
   -2.4309    5.3607   -1.2402 C   0  0  0  0  0  0  0  0  0  0  0  0
   -1.8956    4.7027   -0.1222 C   0  0  0  0  0  0  0  0  0  0  0  0
   -2.2376    3.3707    0.1560 C   0  0  0  0  0  0  0  0  0  0  0  0
   -1.5087   -2.0102    0.8517 N   0  0  0  0  0  0  0  0  0  0  0  0
   -1.3795   -3.4324    0.6913 C   0  0  0  0  0  0  0  0  0  0  0  0
   -0.2896   -3.9276    0.2935 O   0  0  0  0  0  0  0  0  0  0  0  0
   -2.5107   -4.3247    1.0325 C   0  0  0  0  0  0  0  0  0  0  0  0
   -3.1852   -4.1035    2.2432 C   0  0  0  0  0  0  0  0  0  0  0  0
   -4.2173   -4.9543    2.6349 C   0  0  0  0  0  0  0  0  0  0  0  0
   -4.5784   -5.9978    1.8473 N   0  0  0  0  0  0  0  0  0  0  0  0
   -3.9669   -6.2458    0.6595 C   0  0  0  0  0  0  0  0  0  0  0  0
   -4.3912   -7.3278   -0.1201 C   0  0  0  0  0  0  0  0  0  0  0  0
   -3.7946   -7.5789   -1.3565 C   0  0  0  0  0  0  0  0  0  0  0  0
   -2.7784   -6.7453   -1.8254 C   0  0  0  0  0  0  0  0  0  0  0  0
   -2.3423   -5.6624   -1.0563 C   0  0  0  0  0  0  0  0  0  0  0  0
   -2.9155   -5.4064    0.2081 C   0  0  0  0  0  0  0  0  0  0  0  0
    1.1383    3.1529   -0.0029 H   0  0  0  0  0  0  0  0  0  0  0  0
    1.1860    4.3464   -1.3507 H   0  0  0  0  0  0  0  0  0  0  0  0
    0.6336    2.6705   -1.6616 H   0  0  0  0  0  0  0  0  0  0  0  0
    3.0356    4.0470   -3.2102 H   0  0  0  0  0  0  0  0  0  0  0  0
    4.1372    2.6230   -3.0950 H   0  0  0  0  0  0  0  0  0  0  0  0
    2.3937    2.3981   -3.4833 H   0  0  0  0  0  0  0  0  0  0  0  0
    3.5841    4.8843   -0.9295 H   0  0  0  0  0  0  0  0  0  0  0  0
    4.8098    3.5691   -0.7962 H   0  0  0  0  0  0  0  0  0  0  0  0
    3.5600    3.7682    0.4855 H   0  0  0  0  0  0  0  0  0  0  0  0
    3.8056    1.3331   -0.1918 H   0  0  0  0  0  0  0  0  0  0  0  0
    3.4291   -1.5796   -2.9746 H   0  0  0  0  0  0  0  0  0  0  0  0
    4.2407   -3.8133   -2.3329 H   0  0  0  0  0  0  0  0  0  0  0  0
    4.1269   -4.5529    0.0254 H   0  0  0  0  0  0  0  0  0  0  0  0
    3.1623   -3.0813    1.7434 H   0  0  0  0  0  0  0  0  0  0  0  0
    2.6779   -0.6768    2.3746 H   0  0  0  0  0  0  0  0  0  0  0  0
    1.9829    0.4340    1.1939 H   0  0  0  0  0  0  0  0  0  0  0  0
    0.7846   -2.2765    2.0322 H   0  0  0  0  0  0  0  0  0  0  0  0
    0.3287    0.3554    2.9521 H   0  0  0  0  0  0  0  0  0  0  0  0
    0.1290   -1.4235   -0.2971 H   0  0  0  0  0  0  0  0  0  0  0  0
    0.0087    1.0186    0.2703 H   0  0  0  0  0  0  0  0  0  0  0  0
   -1.3699    0.3619   -0.6437 H   0  0  0  0  0  0  0  0  0  0  0  0
   -0.3486    2.8903    2.9499 H   0  0  0  0  0  0  0  0  0  0  0  0
    0.2456    5.2343    2.4989 H   0  0  0  0  0  0  0  0  0  0  0  0
    0.0512    7.2535    1.0791 H   0  0  0  0  0  0  0  0  0  0  0  0
   -0.9059    8.3828   -0.8935 H   0  0  0  0  0  0  0  0  0  0  0  0
   -2.4860    7.1872   -2.3777 H   0  0  0  0  0  0  0  0  0  0  0  0
   -3.1215    4.8522   -1.9023 H   0  0  0  0  0  0  0  0  0  0  0  0
   -2.9217    2.8338   -0.4908 H   0  0  0  0  0  0  0  0  0  0  0  0
   -2.4641   -1.6320    1.0368 H   0  0  0  0  0  0  0  0  0  0  0  0
   -2.8966   -3.2898    2.8978 H   0  0  0  0  0  0  0  0  0  0  0  0
   -4.7282   -4.7891    3.5740 H   0  0  0  0  0  0  0  0  0  0  0  0
   -5.1895   -7.9718    0.2282 H   0  0  0  0  0  0  0  0  0  0  0  0
   -4.1282   -8.4149   -1.9577 H   0  0  0  0  0  0  0  0  0  0  0  0
   -2.3306   -6.9347   -2.7925 H   0  0  0  0  0  0  0  0  0  0  0  0
   -1.5746   -5.0259   -1.4720 H   0  0  0  0  0  0  0  0  0  0  0  0
  1  2  1  0
  2  3  1  0
  2  4  1  0
  2  5  1  0
  5  6  1  0
  6  7  2  0
  6  8  1  0
  8  9  2  0
  9 10  1  0
 10 11  2  0
 11 12  1  0
 12 13  2  0
 13 14  1  0
 14 15  1  0
 15 16  1  0
 15 17  1  0
 17 18  1  0
 18 19  1  0
 19 20  1  0
 20 21  2  0
 21 22  1  0
 22 23  2  0
 23 24  1  0
 24 25  2  0
 25 26  1  0
 26 27  2  0
 27 28  1  0
 28 29  2  0
 17 30  1  0
 30 31  1  0
 31 32  2  0
 31 33  1  0
 33 34  2  0
 34 35  1  0
 35 36  2  0
 36 37  1  0
 37 38  2  0
 38 39  1  0
 39 40  2  0
 40 41  1  0
 41 42  2  0
 13  8  1  0
 28 23  1  0
 29 20  1  0
 42 33  1  0
 42 37  1  0
  1 43  1  0
  1 44  1  0
  1 45  1  0
  3 46  1  0
  3 47  1  0
  3 48  1  0
  4 49  1  0
  4 50  1  0
  4 51  1  0
  5 52  1  0
  9 53  1  0
 10 54  1  0
 11 55  1  0
 12 56  1  0
 14 57  1  0
 14 58  1  0
 15 59  1  1
 16 60  1  0
 17 61  1  6
 18 62  1  0
 18 63  1  0
 21 64  1  0
 22 65  1  0
 24 66  1  0
 25 67  1  0
 26 68  1  0
 27 69  1  0
 29 70  1  0
 30 71  1  0
 34 72  1  0
 35 73  1  0
 38 74  1  0
 39 75  1  0
 40 76  1  0
 41 77  1  0
M  END
$$$$
