
     RDKit          3D

 64 68  0  0  0  0  0  0  0  0999 V2000
   -4.2948   -3.1866    1.7548 C   0  0  0  0  0  0  0  0  0  0  0  0
   -4.7449   -2.0917    0.7858 C   0  0  0  0  0  0  0  0  0  0  0  0
   -3.7188   -0.9349    0.6988 C   0  0  0  0  0  0  0  0  0  0  0  0
   -2.4509   -1.3543   -0.0247 C   0  0  0  0  0  0  0  0  0  0  0  0
   -2.4737   -1.7078   -1.3857 C   0  0  0  0  0  0  0  0  0  0  0  0
   -1.2967   -2.0742   -2.0409 C   0  0  0  0  0  0  0  0  0  0  0  0
   -0.0853   -2.1015   -1.3481 C   0  0  0  0  0  0  0  0  0  0  0  0
   -0.0431   -1.7739    0.0177 C   0  0  0  0  0  0  0  0  0  0  0  0
    1.1950   -1.7646    0.7480 N   0  0  0  0  0  0  0  0  0  0  0  0
    2.2824   -2.6703    0.5021 C   0  0  0  0  0  0  0  0  0  0  0  0
    2.1120   -3.7048   -0.1982 O   0  0  0  0  0  0  0  0  0  0  0  0
    3.6389   -2.3848    1.0755 C   0  0  0  0  0  0  0  0  0  0  0  0
    4.4616   -1.4992    0.1359 C   0  0  0  0  0  0  0  0  0  0  0  0
    3.7715   -0.2157   -0.1096 N   0  0  0  0  0  0  0  0  0  0  0  0
    4.3327    0.9537    0.5967 C   0  0  0  0  0  0  0  0  0  0  0  0
    4.3841    0.7630    2.0935 C   0  0  0  0  0  0  0  0  0  0  0  0
    5.6232    0.8945    2.5632 C   0  0  0  0  0  0  0  0  0  0  0  0
    6.5100    1.1715    1.4497 C   0  0  0  0  0  0  0  0  0  0  0  0
    7.8881    1.3825    1.4511 C   0  0  0  0  0  0  0  0  0  0  0  0
    8.5215    1.6385    0.2233 C   0  0  0  0  0  0  0  0  0  0  0  0
    7.7710    1.6808   -0.9694 C   0  0  0  0  0  0  0  0  0  0  0  0
    6.3826    1.4652   -0.9423 C   0  0  0  0  0  0  0  0  0  0  0  0
    5.7764    1.2043    0.2879 C   0  0  0  0  0  0  0  0  0  0  0  0
   -1.2250   -1.3836    0.6651 C   0  0  0  0  0  0  0  0  0  0  0  0
   -4.2617    0.3720    0.1097 C   0  0  0  0  0  0  0  0  0  0  0  0
   -3.7268    1.5981    0.5676 C   0  0  0  0  0  0  0  0  0  0  0  0
   -2.7436    1.6142    1.5539 O   0  0  0  0  0  0  0  0  0  0  0  0
   -4.1434    2.7556    0.0652 O   0  0  0  0  0  0  0  0  0  0  0  0
   -5.0574    2.8417   -0.8909 C   0  0  0  0  0  0  0  0  0  0  0  0
   -5.4458    4.1002   -1.3642 C   0  0  0  0  0  0  0  0  0  0  0  0
   -6.4018    4.2049   -2.3776 C   0  0  0  0  0  0  0  0  0  0  0  0
   -6.9734    3.0528   -2.9234 C   0  0  0  0  0  0  0  0  0  0  0  0
   -6.5928    1.7906   -2.4576 C   0  0  0  0  0  0  0  0  0  0  0  0
   -5.6318    1.6741   -1.4343 C   0  0  0  0  0  0  0  0  0  0  0  0
   -5.2183    0.4274   -0.9338 C   0  0  0  0  0  0  0  0  0  0  0  0
   -5.7030   -0.6279   -1.4238 O   0  0  0  0  0  0  0  0  0  0  0  0
   -4.1716   -2.7735    2.7785 H   0  0  0  0  0  0  0  0  0  0  0  0
   -3.3337   -3.6311    1.4202 H   0  0  0  0  0  0  0  0  0  0  0  0
   -5.0611   -3.9895    1.7893 H   0  0  0  0  0  0  0  0  0  0  0  0
   -5.7203   -1.6945    1.1429 H   0  0  0  0  0  0  0  0  0  0  0  0
   -4.9020   -2.5653   -0.2057 H   0  0  0  0  0  0  0  0  0  0  0  0
   -3.4648   -0.7118    1.7593 H   0  0  0  0  0  0  0  0  0  0  0  0
   -3.3978   -1.6935   -1.9458 H   0  0  0  0  0  0  0  0  0  0  0  0
   -1.3221   -2.3286   -3.0927 H   0  0  0  0  0  0  0  0  0  0  0  0
    0.8185   -2.3515   -1.8873 H   0  0  0  0  0  0  0  0  0  0  0  0
    1.2901   -1.0939    1.5442 H   0  0  0  0  0  0  0  0  0  0  0  0
    4.1802   -3.3425    1.2360 H   0  0  0  0  0  0  0  0  0  0  0  0
    3.5335   -1.8977    2.0671 H   0  0  0  0  0  0  0  0  0  0  0  0
    4.6002   -2.0411   -0.8271 H   0  0  0  0  0  0  0  0  0  0  0  0
    5.4758   -1.3634    0.5676 H   0  0  0  0  0  0  0  0  0  0  0  0
    3.7911   -0.0125   -1.1366 H   0  0  0  0  0  0  0  0  0  0  0  0
    3.7329    1.8591    0.3609 H   0  0  0  0  0  0  0  0  0  0  0  0
    3.5222    0.5672    2.7178 H   0  0  0  0  0  0  0  0  0  0  0  0
    5.9082    0.8099    3.6035 H   0  0  0  0  0  0  0  0  0  0  0  0
    8.4553    1.3510    2.3723 H   0  0  0  0  0  0  0  0  0  0  0  0
    9.5903    1.8062    0.1937 H   0  0  0  0  0  0  0  0  0  0  0  0
    8.2661    1.8818   -1.9106 H   0  0  0  0  0  0  0  0  0  0  0  0
    5.7994    1.4996   -1.8531 H   0  0  0  0  0  0  0  0  0  0  0  0
   -1.1863   -1.1110    1.7129 H   0  0  0  0  0  0  0  0  0  0  0  0
   -2.3536    2.4890    1.8827 H   0  0  0  0  0  0  0  0  0  0  0  0
   -5.0051    4.9974   -0.9477 H   0  0  0  0  0  0  0  0  0  0  0  0
   -6.6993    5.1799   -2.7413 H   0  0  0  0  0  0  0  0  0  0  0  0
   -7.7131    3.1379   -3.7091 H   0  0  0  0  0  0  0  0  0  0  0  0
   -7.0508    0.9126   -2.8963 H   0  0  0  0  0  0  0  0  0  0  0  0
  1  2  1  0
  2  3  1  0
  3  4  1  0
  4  5  2  0
  5  6  1  0
  6  7  2  0
  7  8  1  0
  8  9  1  0
  9 10  1  0
 10 11  2  0
 10 12  1  0
 12 13  1  0
 13 14  1  0
 14 15  1  0
 15 16  1  0
 16 17  2  0
 17 18  1  0
 18 19  2  0
 19 20  1  0
 20 21  2  0
 21 22  1  0
 22 23  2  0
  8 24  2  0
  3 25  1  0
 25 26  2  0
 26 27  1  0
 26 28  1  0
 28 29  1  0
 29 30  2  0
 30 31  1  0
 31 32  2  0
 32 33  1  0
 33 34  2  0
 34 35  1  0
 35 36  2  0
 23 15  1  0
 23 18  1  0
 24  4  1  0
 34 29  1  0
 35 25  1  0
  1 37  1  0
  1 38  1  0
  1 39  1  0
  2 40  1  0
  2 41  1  0
  3 42  1  0
  5 43  1  0
  6 44  1  0
  7 45  1  0
  9 46  1  0
 12 47  1  0
 12 48  1  0
 13 49  1  0
 13 50  1  0
 14 51  1  0
 15 52  1  0
 16 53  1  0
 17 54  1  0
 19 55  1  0
 20 56  1  0
 21 57  1  0
 22 58  1  0
 24 59  1  0
 27 60  1  0
 30 61  1  0
 31 62  1  0
 32 63  1  0
 33 64  1  0
M  END
$$$$
