
     RDKit          3D

 86 90  0  0  0  0  0  0  0  0999 V2000
    1.5212   -3.5869   -0.2558 O   0  0  0  0  0  0  0  0  0  0  0  0
    1.2275   -2.2251   -0.0596 C   0  0  2  0  0  0  0  0  0  0  0  0
   -0.3049   -2.0488    0.1060 C   0  0  1  0  0  0  0  0  0  0  0  0
   -0.8164   -3.1330    0.8458 O   0  0  0  0  0  0  0  0  0  0  0  0
   -0.7215   -0.7414    0.8318 C   0  0  1  0  0  0  0  0  0  0  0  0
   -0.0154   -0.5234    2.1948 C   0  0  0  0  0  0  0  0  0  0  0  0
   -0.8855    0.2029    3.1934 C   0  0  0  0  0  0  0  0  0  0  0  0
   -2.0042   -0.4418    3.7503 C   0  0  0  0  0  0  0  0  0  0  0  0
   -2.8262    0.2294    4.6604 C   0  0  0  0  0  0  0  0  0  0  0  0
   -2.5353    1.5455    5.0279 C   0  0  0  0  0  0  0  0  0  0  0  0
   -1.4194    2.1905    4.4891 C   0  0  0  0  0  0  0  0  0  0  0  0
   -0.5954    1.5228    3.5784 C   0  0  0  0  0  0  0  0  0  0  0  0
   -0.6526    0.4578   -0.0351 N   0  0  0  0  0  0  0  0  0  0  0  0
   -1.6857    1.5021    0.1341 C   0  0  0  0  0  0  0  0  0  0  0  0
   -2.8667    1.3364   -0.8562 C   0  0  0  0  0  0  0  0  0  0  0  0
   -3.7575    0.1161   -0.5056 C   0  0  0  0  0  0  0  0  0  0  0  0
   -5.1865    0.2041   -1.0837 C   0  0  0  0  0  0  0  0  0  0  0  0
   -5.2572    1.1100   -2.3158 C   0  0  0  0  0  0  0  0  0  0  0  0
   -4.8133    2.5477   -1.9844 C   0  0  0  0  0  0  0  0  0  0  0  0
   -3.7180    2.6198   -0.8989 C   0  0  0  0  0  0  0  0  0  0  0  0
    0.3429    0.6415   -1.0762 C   0  0  0  0  0  0  0  0  0  0  0  0
   -0.0108    1.2920   -2.1516 N   0  0  0  0  0  0  0  0  0  0  0  0
    0.7581    1.4715   -3.3118 C   0  0  0  0  0  0  0  0  0  0  0  0
    1.3881    1.6207   -4.2712 N   0  0  0  0  0  0  0  0  0  0  0  0
    1.6727    0.0715   -0.9535 N   0  0  0  0  0  0  0  0  0  0  0  0
    2.8664    0.9538   -1.0431 C   0  0  0  0  0  0  0  0  0  0  0  0
    3.2229    1.7027    0.2569 C   0  0  0  0  0  0  0  0  0  0  0  0
    3.6973    0.7606    1.3878 C   0  0  0  0  0  0  0  0  0  0  0  0
    3.5803    1.3902    2.7924 C   0  0  0  0  0  0  0  0  0  0  0  0
    3.7072    2.9174    2.7514 C   0  0  0  0  0  0  0  0  0  0  0  0
    2.6138    3.5683    1.8775 C   0  0  0  0  0  0  0  0  0  0  0  0
    2.1210    2.6669    0.7260 C   0  0  0  0  0  0  0  0  0  0  0  0
    1.8492   -1.3762   -1.2000 C   0  0  2  0  0  0  0  0  0  0  0  0
    1.3780   -1.7383   -2.6359 C   0  0  0  0  0  0  0  0  0  0  0  0
    1.6831   -3.1599   -3.0337 C   0  0  0  0  0  0  0  0  0  0  0  0
    0.6534   -4.1136   -3.1125 C   0  0  0  0  0  0  0  0  0  0  0  0
    0.9437   -5.4356   -3.4633 C   0  0  0  0  0  0  0  0  0  0  0  0
    2.2603   -5.8145   -3.7387 C   0  0  0  0  0  0  0  0  0  0  0  0
    3.2894   -4.8719   -3.6640 C   0  0  0  0  0  0  0  0  0  0  0  0
    3.0041   -3.5489   -3.3131 C   0  0  0  0  0  0  0  0  0  0  0  0
    2.4875   -3.7128   -0.0627 H   0  0  0  0  0  0  0  0  0  0  0  0
    1.7216   -1.9235    0.8866 H   0  0  0  0  0  0  0  0  0  0  0  0
   -0.7964   -2.0429   -0.8929 H   0  0  0  0  0  0  0  0  0  0  0  0
   -1.0195   -3.8623    0.2026 H   0  0  0  0  0  0  0  0  0  0  0  0
   -1.7916   -0.9159    1.0666 H   0  0  0  0  0  0  0  0  0  0  0  0
    0.2499   -1.5027    2.6489 H   0  0  0  0  0  0  0  0  0  0  0  0
    0.9310    0.0206    2.0365 H   0  0  0  0  0  0  0  0  0  0  0  0
   -2.2413   -1.4621    3.4749 H   0  0  0  0  0  0  0  0  0  0  0  0
   -3.6889   -0.2711    5.0807 H   0  0  0  0  0  0  0  0  0  0  0  0
   -3.1726    2.0642    5.7323 H   0  0  0  0  0  0  0  0  0  0  0  0
   -1.1920    3.2086    4.7775 H   0  0  0  0  0  0  0  0  0  0  0  0
    0.2636    2.0371    3.1771 H   0  0  0  0  0  0  0  0  0  0  0  0
   -2.0816    1.5024    1.1701 H   0  0  0  0  0  0  0  0  0  0  0  0
   -1.2100    2.4986   -0.0020 H   0  0  0  0  0  0  0  0  0  0  0  0
   -2.4636    1.1802   -1.8782 H   0  0  0  0  0  0  0  0  0  0  0  0
   -3.8518    0.0114    0.5972 H   0  0  0  0  0  0  0  0  0  0  0  0
   -3.2665   -0.8035   -0.8927 H   0  0  0  0  0  0  0  0  0  0  0  0
   -5.8757    0.6054   -0.3078 H   0  0  0  0  0  0  0  0  0  0  0  0
   -5.5430   -0.8142   -1.3510 H   0  0  0  0  0  0  0  0  0  0  0  0
   -4.6031    0.6907   -3.1118 H   0  0  0  0  0  0  0  0  0  0  0  0
   -6.2966    1.1242   -2.7091 H   0  0  0  0  0  0  0  0  0  0  0  0
   -4.4410    3.0251   -2.9170 H   0  0  0  0  0  0  0  0  0  0  0  0
   -5.6932    3.1350   -1.6422 H   0  0  0  0  0  0  0  0  0  0  0  0
   -3.0733    3.5030   -1.1020 H   0  0  0  0  0  0  0  0  0  0  0  0
   -4.1938    2.7740    0.0953 H   0  0  0  0  0  0  0  0  0  0  0  0
    2.7377    1.7147   -1.8338 H   0  0  0  0  0  0  0  0  0  0  0  0
    3.7635    0.3784   -1.3584 H   0  0  0  0  0  0  0  0  0  0  0  0
    4.0967    2.3435   -0.0053 H   0  0  0  0  0  0  0  0  0  0  0  0
    3.1304   -0.1889    1.3758 H   0  0  0  0  0  0  0  0  0  0  0  0
    4.7607    0.4941    1.1995 H   0  0  0  0  0  0  0  0  0  0  0  0
    2.6023    1.1253    3.2460 H   0  0  0  0  0  0  0  0  0  0  0  0
    4.3715    0.9714    3.4511 H   0  0  0  0  0  0  0  0  0  0  0  0
    4.7097    3.1825    2.3487 H   0  0  0  0  0  0  0  0  0  0  0  0
    3.6450    3.3227    3.7844 H   0  0  0  0  0  0  0  0  0  0  0  0
    1.7459    3.8450    2.5141 H   0  0  0  0  0  0  0  0  0  0  0  0
    3.0188    4.5132    1.4541 H   0  0  0  0  0  0  0  0  0  0  0  0
    1.2440    2.0894    1.0697 H   0  0  0  0  0  0  0  0  0  0  0  0
    1.7867    3.3073   -0.1194 H   0  0  0  0  0  0  0  0  0  0  0  0
    2.9355   -1.6142   -1.1676 H   0  0  0  0  0  0  0  0  0  0  0  0
    1.9081   -1.0742   -3.3515 H   0  0  0  0  0  0  0  0  0  0  0  0
    0.2972   -1.5256   -2.7685 H   0  0  0  0  0  0  0  0  0  0  0  0
   -0.3704   -3.8366   -2.8938 H   0  0  0  0  0  0  0  0  0  0  0  0
    0.1479   -6.1670   -3.5194 H   0  0  0  0  0  0  0  0  0  0  0  0
    2.4832   -6.8385   -4.0093 H   0  0  0  0  0  0  0  0  0  0  0  0
    4.3088   -5.1668   -3.8769 H   0  0  0  0  0  0  0  0  0  0  0  0
    3.8108   -2.8285   -3.2565 H   0  0  0  0  0  0  0  0  0  0  0  0
  1  2  1  0
  2  3  1  0
  3  4  1  0
  3  5  1  0
  5  6  1  0
  6  7  1  0
  7  8  2  0
  8  9  1  0
  9 10  2  0
 10 11  1  0
 11 12  2  0
  5 13  1  0
 13 14  1  0
 14 15  1  0
 15 16  1  0
 16 17  1  0
 17 18  1  0
 18 19  1  0
 19 20  1  0
 13 21  1  0
 21 22  2  3
 22 23  1  0
 23 24  3  0
 21 25  1  0
 25 26  1  0
 26 27  1  0
 27 28  1  0
 28 29  1  0
 29 30  1  0
 30 31  1  0
 31 32  1  0
 25 33  1  0
 33 34  1  0
 34 35  1  0
 35 36  2  0
 36 37  1  0
 37 38  2  0
 38 39  1  0
 39 40  2  0
 12  7  1  0
 20 15  1  0
 32 27  1  0
 33  2  1  0
 40 35  1  0
  1 41  1  0
  2 42  1  1
  3 43  1  6
  4 44  1  0
  5 45  1  1
  6 46  1  0
  6 47  1  0
  8 48  1  0
  9 49  1  0
 10 50  1  0
 11 51  1  0
 12 52  1  0
 14 53  1  0
 14 54  1  0
 15 55  1  0
 16 56  1  0
 16 57  1  0
 17 58  1  0
 17 59  1  0
 18 60  1  0
 18 61  1  0
 19 62  1  0
 19 63  1  0
 20 64  1  0
 20 65  1  0
 26 66  1  0
 26 67  1  0
 27 68  1  0
 28 69  1  0
 28 70  1  0
 29 71  1  0
 29 72  1  0
 30 73  1  0
 30 74  1  0
 31 75  1  0
 31 76  1  0
 32 77  1  0
 32 78  1  0
 33 79  1  6
 34 80  1  0
 34 81  1  0
 36 82  1  0
 37 83  1  0
 38 84  1  0
 39 85  1  0
 40 86  1  0
M  END
$$$$
