
     RDKit          3D

 73 74  0  0  0  0  0  0  0  0999 V2000
   -5.8519   -3.1861   -1.1501 C   0  0  0  0  0  0  0  0  0  0  0  0
   -5.0076   -2.3138   -0.2797 C   0  0  0  0  0  0  0  0  0  0  0  0
   -5.3495   -1.1170   -0.0777 O   0  0  0  0  0  0  0  0  0  0  0  0
   -3.7994   -2.8310    0.2940 N   0  0  0  0  0  0  0  0  0  0  0  0
   -2.9146   -2.0042    1.1224 C   0  0  1  0  0  0  0  0  0  0  0  0
   -1.9579   -2.8777    1.9521 C   0  0  0  0  0  0  0  0  0  0  0  0
   -2.7102   -3.7272    2.9350 C   0  0  0  0  0  0  0  0  0  0  0  0
   -2.9859   -5.0985    2.6491 N   0  0  0  0  0  0  0  0  0  0  0  0
   -3.1270   -3.2181    4.0095 O   0  0  0  0  0  0  0  0  0  0  0  0
   -2.1187   -1.0736    0.2476 C   0  0  0  0  0  0  0  0  0  0  0  0
   -1.6293   -1.5018   -0.8336 O   0  0  0  0  0  0  0  0  0  0  0  0
   -1.8709    0.2751    0.6737 N   0  0  0  0  0  0  0  0  0  0  0  0
   -1.0425    1.2179   -0.0867 C   0  0  1  0  0  0  0  0  0  0  0  0
   -1.8362    2.5260   -0.2695 C   0  0  0  0  0  0  0  0  0  0  0  0
   -1.1920    3.5223   -1.6600 S   0  0  0  0  0  0  0  0  0  0  0  0
   -2.3595    4.8587   -1.4019 C   0  0  0  0  0  0  0  0  0  0  0  0
   -3.5994    4.8436   -2.0534 C   0  0  0  0  0  0  0  0  0  0  0  0
   -4.5088    5.8869   -1.8515 C   0  0  0  0  0  0  0  0  0  0  0  0
   -4.1798    6.9476   -1.0013 C   0  0  0  0  0  0  0  0  0  0  0  0
   -2.9408    6.9659   -0.3528 C   0  0  0  0  0  0  0  0  0  0  0  0
   -2.0302    5.9235   -0.5534 C   0  0  0  0  0  0  0  0  0  0  0  0
    0.3023    1.4483    0.6591 C   0  0  2  0  0  0  0  0  0  0  0  0
    1.1188    2.3600   -0.0330 O   0  0  0  0  0  0  0  0  0  0  0  0
    1.0615    0.1217    0.8982 C   0  0  0  0  0  0  0  0  0  0  0  0
    2.3959    0.3445    1.5831 C   0  0  0  0  0  0  0  0  0  0  0  0
    2.3872    0.7554    2.9295 C   0  0  0  0  0  0  0  0  0  0  0  0
    3.5801    0.9281    3.6321 C   0  0  0  0  0  0  0  0  0  0  0  0
    4.8006    0.6837    3.0068 C   0  0  0  0  0  0  0  0  0  0  0  0
    4.8333    0.2677    1.6755 C   0  0  0  0  0  0  0  0  0  0  0  0
    3.6433    0.0986    0.9463 C   0  0  0  0  0  0  0  0  0  0  0  0
    3.7484   -0.3432   -0.4608 C   0  0  0  0  0  0  0  0  0  0  0  0
    3.1579    0.3104   -1.3606 O   0  0  0  0  0  0  0  0  0  0  0  0
    4.5471   -1.4941   -0.7943 N   0  0  0  0  0  0  0  0  0  0  0  0
    4.7370   -2.0263   -2.1581 C   0  0  0  0  0  0  0  0  0  0  0  0
    5.4206   -0.9726   -3.0511 C   0  0  0  0  0  0  0  0  0  0  0  0
    3.3812   -2.4435   -2.7616 C   0  0  0  0  0  0  0  0  0  0  0  0
    5.6451   -3.2715   -2.0888 C   0  0  0  0  0  0  0  0  0  0  0  0
   -6.0256   -4.1605   -0.6474 H   0  0  0  0  0  0  0  0  0  0  0  0
   -5.3311   -3.3599   -2.1145 H   0  0  0  0  0  0  0  0  0  0  0  0
   -6.8338   -2.7062   -1.3487 H   0  0  0  0  0  0  0  0  0  0  0  0
   -3.5215   -3.8117    0.0615 H   0  0  0  0  0  0  0  0  0  0  0  0
   -3.5345   -1.4045    1.8262 H   0  0  0  0  0  0  0  0  0  0  0  0
   -1.2557   -2.2259    2.5173 H   0  0  0  0  0  0  0  0  0  0  0  0
   -1.3474   -3.5222    1.2821 H   0  0  0  0  0  0  0  0  0  0  0  0
   -3.5242   -5.6797    3.3292 H   0  0  0  0  0  0  0  0  0  0  0  0
   -2.6537   -5.5376    1.7621 H   0  0  0  0  0  0  0  0  0  0  0  0
   -2.2282    0.5775    1.6087 H   0  0  0  0  0  0  0  0  0  0  0  0
   -0.8289    0.8023   -1.0963 H   0  0  0  0  0  0  0  0  0  0  0  0
   -1.8164    3.1223    0.6687 H   0  0  0  0  0  0  0  0  0  0  0  0
   -2.8964    2.2794   -0.4971 H   0  0  0  0  0  0  0  0  0  0  0  0
   -3.8596    4.0246   -2.7118 H   0  0  0  0  0  0  0  0  0  0  0  0
   -5.4675    5.8735   -2.3536 H   0  0  0  0  0  0  0  0  0  0  0  0
   -4.8841    7.7546   -0.8455 H   0  0  0  0  0  0  0  0  0  0  0  0
   -2.6865    7.7872    0.3047 H   0  0  0  0  0  0  0  0  0  0  0  0
   -1.0730    5.9421   -0.0480 H   0  0  0  0  0  0  0  0  0  0  0  0
    0.0693    1.8934    1.6511 H   0  0  0  0  0  0  0  0  0  0  0  0
    1.2767    1.9888   -0.9394 H   0  0  0  0  0  0  0  0  0  0  0  0
    1.1698   -0.4295   -0.0576 H   0  0  0  0  0  0  0  0  0  0  0  0
    0.4530   -0.5355    1.5556 H   0  0  0  0  0  0  0  0  0  0  0  0
    1.4495    0.9313    3.4423 H   0  0  0  0  0  0  0  0  0  0  0  0
    3.5572    1.2453    4.6667 H   0  0  0  0  0  0  0  0  0  0  0  0
    5.7246    0.8156    3.5549 H   0  0  0  0  0  0  0  0  0  0  0  0
    5.7939    0.0895    1.2071 H   0  0  0  0  0  0  0  0  0  0  0  0
    4.9975   -1.9996    0.0032 H   0  0  0  0  0  0  0  0  0  0  0  0
    4.7661   -0.0933   -3.2187 H   0  0  0  0  0  0  0  0  0  0  0  0
    5.6640   -1.4024   -4.0468 H   0  0  0  0  0  0  0  0  0  0  0  0
    6.3631   -0.6216   -2.5785 H   0  0  0  0  0  0  0  0  0  0  0  0
    2.8573   -3.1472   -2.0795 H   0  0  0  0  0  0  0  0  0  0  0  0
    3.5276   -2.9460   -3.7422 H   0  0  0  0  0  0  0  0  0  0  0  0
    2.7225   -1.5677   -2.9311 H   0  0  0  0  0  0  0  0  0  0  0  0
    6.6330   -3.0074   -1.6531 H   0  0  0  0  0  0  0  0  0  0  0  0
    5.1819   -4.0548   -1.4504 H   0  0  0  0  0  0  0  0  0  0  0  0
    5.8125   -3.6995   -3.1011 H   0  0  0  0  0  0  0  0  0  0  0  0
  1  2  1  0
  2  3  2  0
  2  4  1  0
  4  5  1  0
  5  6  1  0
  6  7  1  0
  7  8  1  0
  7  9  2  0
  5 10  1  0
 10 11  2  0
 10 12  1  0
 12 13  1  0
 13 14  1  0
 14 15  1  0
 15 16  1  0
 16 17  2  0
 17 18  1  0
 18 19  2  0
 19 20  1  0
 20 21  2  0
 13 22  1  0
 22 23  1  0
 22 24  1  0
 24 25  1  0
 25 26  2  0
 26 27  1  0
 27 28  2  0
 28 29  1  0
 29 30  2  0
 30 31  1  0
 31 32  2  0
 31 33  1  0
 33 34  1  0
 34 35  1  0
 34 36  1  0
 34 37  1  0
 21 16  1  0
 30 25  1  0
  1 38  1  0
  1 39  1  0
  1 40  1  0
  4 41  1  0
  5 42  1  1
  6 43  1  0
  6 44  1  0
  8 45  1  0
  8 46  1  0
 12 47  1  0
 13 48  1  6
 14 49  1  0
 14 50  1  0
 17 51  1  0
 18 52  1  0
 19 53  1  0
 20 54  1  0
 21 55  1  0
 22 56  1  1
 23 57  1  0
 24 58  1  0
 24 59  1  0
 26 60  1  0
 27 61  1  0
 28 62  1  0
 29 63  1  0
 33 64  1  0
 35 65  1  0
 35 66  1  0
 35 67  1  0
 36 68  1  0
 36 69  1  0
 36 70  1  0
 37 71  1  0
 37 72  1  0
 37 73  1  0
M  END
$$$$
