
     RDKit          3D

 79 82  0  0  0  0  0  0  0  0999 V2000
   -3.5035   -3.5981    1.2273 C   0  0  0  0  0  0  0  0  0  0  0  0
   -4.1883   -2.3027    0.7446 C   0  0  0  0  0  0  0  0  0  0  0  0
   -4.9959   -2.6527   -0.5247 C   0  0  0  0  0  0  0  0  0  0  0  0
   -3.2362   -1.0419    0.5393 C   0  0  0  0  0  0  0  0  0  0  0  0
   -3.9492    0.2632    1.0125 C   0  0  0  0  0  0  0  0  0  0  0  0
   -5.2485    0.6096    0.2689 C   0  0  0  0  0  0  0  0  0  0  0  0
   -5.7317    1.9804    0.6637 C   0  0  0  0  0  0  0  0  0  0  0  0
   -5.3202    3.1125   -0.0589 C   0  0  0  0  0  0  0  0  0  0  0  0
   -5.7417    4.3879    0.3291 C   0  0  0  0  0  0  0  0  0  0  0  0
   -6.5696    4.5454    1.4489 C   0  0  0  0  0  0  0  0  0  0  0  0
   -6.9959    5.8111    1.8448 O   0  0  0  0  0  0  0  0  0  0  0  0
   -6.9705    3.4218    2.1790 C   0  0  0  0  0  0  0  0  0  0  0  0
   -6.5503    2.1453    1.7932 C   0  0  0  0  0  0  0  0  0  0  0  0
   -1.9063   -1.1247    1.3465 C   0  0  0  0  0  0  0  0  0  0  0  0
   -0.9212   -2.0406    0.6865 C   0  0  0  0  0  0  0  0  0  0  0  0
   -0.1085   -2.6871    1.3956 O   0  0  0  0  0  0  0  0  0  0  0  0
   -0.8796   -2.1370   -0.7843 C   0  0  0  0  0  0  0  0  0  0  0  0
    0.4766   -3.0167   -1.5998 S   0  0  0  0  0  0  0  0  0  0  0  0
    1.6980   -1.6953   -1.4022 C   0  0  0  0  0  0  0  0  0  0  0  0
    1.3827   -0.4663   -2.0010 C   0  0  0  0  0  0  0  0  0  0  0  0
    2.1686    0.6698   -1.8007 C   0  0  0  0  0  0  0  0  0  0  0  0
    1.7594    1.9736   -2.4327 C   0  0  0  0  0  0  0  0  0  0  0  0
    3.3016    0.5839   -0.9771 C   0  0  0  0  0  0  0  0  0  0  0  0
    4.0791    1.7586   -0.6776 N   0  0  0  0  0  0  0  0  0  0  0  0
    5.5163    1.7579   -0.6415 C   0  0  0  0  0  0  0  0  0  0  0  0
    6.1536    0.8265   -1.2061 O   0  0  0  0  0  0  0  0  0  0  0  0
    6.2633    2.8581    0.0143 C   0  0  0  0  0  0  0  0  0  0  0  0
    5.6545    3.6824    0.9766 C   0  0  0  0  0  0  0  0  0  0  0  0
    6.3824    4.7066    1.5848 C   0  0  0  0  0  0  0  0  0  0  0  0
    7.7182    4.8994    1.2330 C   0  0  0  0  0  0  0  0  0  0  0  0
    8.3013    4.0915    0.3095 N   0  0  0  0  0  0  0  0  0  0  0  0
    7.6155    3.0862   -0.2975 C   0  0  0  0  0  0  0  0  0  0  0  0
    3.6617   -0.6551   -0.4263 C   0  0  0  0  0  0  0  0  0  0  0  0
    2.9239   -1.8421   -0.6756 C   0  0  0  0  0  0  0  0  0  0  0  0
    3.5120   -3.2293   -0.2590 C   0  0  0  0  0  0  0  0  0  0  0  0
    4.9385   -3.1221    0.3492 C   0  0  0  0  0  0  0  0  0  0  0  0
    2.6361   -3.9155    0.8094 C   0  0  0  0  0  0  0  0  0  0  0  0
    3.6484   -4.1433   -1.5004 C   0  0  0  0  0  0  0  0  0  0  0  0
   -1.8655   -1.5580   -1.4986 C   0  0  0  0  0  0  0  0  0  0  0  0
   -1.8878   -1.5922   -2.8947 O   0  0  0  0  0  0  0  0  0  0  0  0
   -2.9128   -0.8857   -0.8511 O   0  0  0  0  0  0  0  0  0  0  0  0
   -2.7659   -3.9629    0.4829 H   0  0  0  0  0  0  0  0  0  0  0  0
   -4.2624   -4.3980    1.3668 H   0  0  0  0  0  0  0  0  0  0  0  0
   -3.0144   -3.4603    2.2122 H   0  0  0  0  0  0  0  0  0  0  0  0
   -4.9268   -2.0540    1.5390 H   0  0  0  0  0  0  0  0  0  0  0  0
   -5.7903   -3.3901   -0.2800 H   0  0  0  0  0  0  0  0  0  0  0  0
   -4.3352   -3.0986   -1.2986 H   0  0  0  0  0  0  0  0  0  0  0  0
   -5.4890   -1.7689   -0.9687 H   0  0  0  0  0  0  0  0  0  0  0  0
   -3.2506    1.1196    0.8749 H   0  0  0  0  0  0  0  0  0  0  0  0
   -4.1683    0.1917    2.1016 H   0  0  0  0  0  0  0  0  0  0  0  0
   -6.0379   -0.1305    0.5178 H   0  0  0  0  0  0  0  0  0  0  0  0
   -5.0795    0.5803   -0.8294 H   0  0  0  0  0  0  0  0  0  0  0  0
   -4.6721    3.0071   -0.9202 H   0  0  0  0  0  0  0  0  0  0  0  0
   -5.4216    5.2525   -0.2383 H   0  0  0  0  0  0  0  0  0  0  0  0
   -6.7222    6.6446    1.3375 H   0  0  0  0  0  0  0  0  0  0  0  0
   -7.6051    3.5384    3.0483 H   0  0  0  0  0  0  0  0  0  0  0  0
   -6.8610    1.2860    2.3747 H   0  0  0  0  0  0  0  0  0  0  0  0
   -2.0945   -1.4239    2.3996 H   0  0  0  0  0  0  0  0  0  0  0  0
   -1.4142   -0.1283    1.3859 H   0  0  0  0  0  0  0  0  0  0  0  0
    0.4909   -0.3845   -2.6071 H   0  0  0  0  0  0  0  0  0  0  0  0
    2.6410    2.4731   -2.8871 H   0  0  0  0  0  0  0  0  0  0  0  0
    1.3156    2.6374   -1.6615 H   0  0  0  0  0  0  0  0  0  0  0  0
    1.0103    1.8181   -3.2382 H   0  0  0  0  0  0  0  0  0  0  0  0
    3.5822    2.6715   -0.5782 H   0  0  0  0  0  0  0  0  0  0  0  0
    4.6268    3.5276    1.2770 H   0  0  0  0  0  0  0  0  0  0  0  0
    5.9164    5.3417    2.3272 H   0  0  0  0  0  0  0  0  0  0  0  0
    8.2937    5.6890    1.6975 H   0  0  0  0  0  0  0  0  0  0  0  0
    8.1251    2.4727   -1.0292 H   0  0  0  0  0  0  0  0  0  0  0  0
    4.5335   -0.6611    0.2064 H   0  0  0  0  0  0  0  0  0  0  0  0
    5.3558   -4.1283    0.5739 H   0  0  0  0  0  0  0  0  0  0  0  0
    4.9239   -2.5636    1.3102 H   0  0  0  0  0  0  0  0  0  0  0  0
    5.6386   -2.6290   -0.3600 H   0  0  0  0  0  0  0  0  0  0  0  0
    2.4434   -3.2180    1.6522 H   0  0  0  0  0  0  0  0  0  0  0  0
    1.6751   -4.2754    0.4022 H   0  0  0  0  0  0  0  0  0  0  0  0
    3.1451   -4.8147    1.2200 H   0  0  0  0  0  0  0  0  0  0  0  0
    2.6731   -4.4513   -1.9165 H   0  0  0  0  0  0  0  0  0  0  0  0
    4.2204   -3.6241   -2.2996 H   0  0  0  0  0  0  0  0  0  0  0  0
    4.1847   -5.0833   -1.2452 H   0  0  0  0  0  0  0  0  0  0  0  0
   -1.1931   -2.0678   -3.4559 H   0  0  0  0  0  0  0  0  0  0  0  0
  1  2  1  0
  2  3  1  0
  2  4  1  0
  4  5  1  0
  5  6  1  0
  6  7  1  0
  7  8  2  0
  8  9  1  0
  9 10  2  0
 10 11  1  0
 10 12  1  0
 12 13  2  0
  4 14  1  0
 14 15  1  0
 15 16  2  0
 15 17  1  0
 17 18  1  0
 18 19  1  0
 19 20  2  0
 20 21  1  0
 21 22  1  0
 21 23  2  0
 23 24  1  0
 24 25  1  0
 25 26  2  0
 25 27  1  0
 27 28  2  0
 28 29  1  0
 29 30  2  0
 30 31  1  0
 31 32  2  0
 23 33  1  0
 33 34  2  0
 34 35  1  0
 35 36  1  0
 35 37  1  0
 35 38  1  0
 17 39  2  0
 39 40  1  0
 39 41  1  0
 13  7  1  0
 32 27  1  0
 34 19  1  0
 41  4  1  0
  1 42  1  0
  1 43  1  0
  1 44  1  0
  2 45  1  0
  3 46  1  0
  3 47  1  0
  3 48  1  0
  5 49  1  0
  5 50  1  0
  6 51  1  0
  6 52  1  0
  8 53  1  0
  9 54  1  0
 11 55  1  0
 12 56  1  0
 13 57  1  0
 14 58  1  0
 14 59  1  0
 20 60  1  0
 22 61  1  0
 22 62  1  0
 22 63  1  0
 24 64  1  0
 28 65  1  0
 29 66  1  0
 30 67  1  0
 32 68  1  0
 33 69  1  0
 36 70  1  0
 36 71  1  0
 36 72  1  0
 37 73  1  0
 37 74  1  0
 37 75  1  0
 38 76  1  0
 38 77  1  0
 38 78  1  0
 40 79  1  0
M  END
$$$$
