
     RDKit          3D

 77 80  0  0  0  0  0  0  0  0999 V2000
   -3.8434    2.7814   -1.9345 C   0  0  0  0  0  0  0  0  0  0  0  0
   -4.7203    1.5673   -1.7388 C   0  0  0  0  0  0  0  0  0  0  0  0
   -5.8258    1.3578   -2.5926 C   0  0  0  0  0  0  0  0  0  0  0  0
   -6.1294    2.2814   -3.5935 O   0  0  0  0  0  0  0  0  0  0  0  0
   -6.6252    0.2178   -2.4401 C   0  0  0  0  0  0  0  0  0  0  0  0
   -6.3437   -0.7117   -1.4417 C   0  0  0  0  0  0  0  0  0  0  0  0
   -5.2711   -0.5056   -0.5759 C   0  0  0  0  0  0  0  0  0  0  0  0
   -4.4589    0.6341   -0.7006 C   0  0  0  0  0  0  0  0  0  0  0  0
   -3.3590    0.8265    0.2710 C   0  0  0  0  0  0  0  0  0  0  0  0
   -3.1779    1.9593    0.7949 O   0  0  0  0  0  0  0  0  0  0  0  0
   -2.5107   -0.2748    0.6283 N   0  0  0  0  0  0  0  0  0  0  0  0
   -1.3913   -0.1339    1.5668 C   0  0  2  0  0  0  0  0  0  0  0  0
   -0.2045    0.6048    0.9017 C   0  0  0  0  0  0  0  0  0  0  0  0
    0.2629    0.0038   -0.4516 C   0  0  2  0  0  0  0  0  0  0  0  0
    0.8562   -1.2595   -0.2728 O   0  0  0  0  0  0  0  0  0  0  0  0
    1.2182    0.9716   -1.2053 C   0  0  2  0  0  0  0  0  0  0  0  0
    1.3711    0.6376   -2.7085 C   0  0  0  0  0  0  0  0  0  0  0  0
    1.9685   -0.7193   -2.9948 C   0  0  0  0  0  0  0  0  0  0  0  0
    3.3595   -0.8709   -3.1221 C   0  0  0  0  0  0  0  0  0  0  0  0
    3.9121   -2.1287   -3.3804 C   0  0  0  0  0  0  0  0  0  0  0  0
    3.0808   -3.2426   -3.5243 C   0  0  0  0  0  0  0  0  0  0  0  0
    1.6950   -3.0990   -3.4161 C   0  0  0  0  0  0  0  0  0  0  0  0
    1.1387   -1.8425   -3.1577 C   0  0  0  0  0  0  0  0  0  0  0  0
    2.5285    1.0481   -0.5451 N   0  0  0  0  0  0  0  0  0  0  0  0
    2.8778    2.1036    0.3655 C   0  0  0  0  0  0  0  0  0  0  0  0
    2.0846    3.0655    0.5568 O   0  0  0  0  0  0  0  0  0  0  0  0
    4.1343    2.0438    1.1435 C   0  0  0  0  0  0  0  0  0  0  0  0
    4.0572    2.2421    2.5319 C   0  0  0  0  0  0  0  0  0  0  0  0
    5.1979    2.1514    3.3279 C   0  0  0  0  0  0  0  0  0  0  0  0
    6.4318    1.8615    2.7504 C   0  0  0  0  0  0  0  0  0  0  0  0
    6.5398    1.6803    1.3660 C   0  0  0  0  0  0  0  0  0  0  0  0
    7.7831    1.3881    0.8037 O   0  0  0  0  0  0  0  0  0  0  0  0
    5.3981    1.7956    0.5439 C   0  0  0  0  0  0  0  0  0  0  0  0
    5.5566    1.6404   -0.9488 C   0  0  0  0  0  0  0  0  0  0  0  0
   -0.9873   -1.5062    2.1463 C   0  0  0  0  0  0  0  0  0  0  0  0
   -2.0706   -2.0562    3.0397 C   0  0  0  0  0  0  0  0  0  0  0  0
   -2.1651   -1.6339    4.3765 C   0  0  0  0  0  0  0  0  0  0  0  0
   -3.1917   -2.1130    5.1962 C   0  0  0  0  0  0  0  0  0  0  0  0
   -4.1343   -3.0100    4.6864 C   0  0  0  0  0  0  0  0  0  0  0  0
   -4.0527   -3.4285    3.3555 C   0  0  0  0  0  0  0  0  0  0  0  0
   -3.0271   -2.9529    2.5327 C   0  0  0  0  0  0  0  0  0  0  0  0
   -2.7743    2.5173   -1.7904 H   0  0  0  0  0  0  0  0  0  0  0  0
   -4.1317    3.5694   -1.2079 H   0  0  0  0  0  0  0  0  0  0  0  0
   -3.9323    3.1949   -2.9604 H   0  0  0  0  0  0  0  0  0  0  0  0
   -6.9172    2.1508   -4.2174 H   0  0  0  0  0  0  0  0  0  0  0  0
   -7.4689    0.0520   -3.0981 H   0  0  0  0  0  0  0  0  0  0  0  0
   -6.9671   -1.5895   -1.3298 H   0  0  0  0  0  0  0  0  0  0  0  0
   -5.0901   -1.2280    0.2111 H   0  0  0  0  0  0  0  0  0  0  0  0
   -2.6483   -1.1880    0.1388 H   0  0  0  0  0  0  0  0  0  0  0  0
   -1.7222    0.4960    2.4236 H   0  0  0  0  0  0  0  0  0  0  0  0
    0.6483    0.6495    1.6137 H   0  0  0  0  0  0  0  0  0  0  0  0
   -0.5211    1.6567    0.7329 H   0  0  0  0  0  0  0  0  0  0  0  0
   -0.6334   -0.1305   -1.0935 H   0  0  0  0  0  0  0  0  0  0  0  0
    1.5508   -1.1793    0.4312 H   0  0  0  0  0  0  0  0  0  0  0  0
    0.7458    1.9790   -1.1958 H   0  0  0  0  0  0  0  0  0  0  0  0
    0.3753    0.7121   -3.1988 H   0  0  0  0  0  0  0  0  0  0  0  0
    2.0012    1.4219   -3.1831 H   0  0  0  0  0  0  0  0  0  0  0  0
    4.0136   -0.0145   -3.0269 H   0  0  0  0  0  0  0  0  0  0  0  0
    4.9848   -2.2392   -3.4723 H   0  0  0  0  0  0  0  0  0  0  0  0
    3.5099   -4.2158   -3.7245 H   0  0  0  0  0  0  0  0  0  0  0  0
    1.0515   -3.9613   -3.5327 H   0  0  0  0  0  0  0  0  0  0  0  0
    0.0631   -1.7462   -3.0764 H   0  0  0  0  0  0  0  0  0  0  0  0
    3.1584    0.2169   -0.5924 H   0  0  0  0  0  0  0  0  0  0  0  0
    3.1037    2.4452    3.0050 H   0  0  0  0  0  0  0  0  0  0  0  0
    5.1227    2.2945    4.3982 H   0  0  0  0  0  0  0  0  0  0  0  0
    7.3083    1.7807    3.3808 H   0  0  0  0  0  0  0  0  0  0  0  0
    8.6172    1.3011    1.3726 H   0  0  0  0  0  0  0  0  0  0  0  0
    4.7559    2.1686   -1.5060 H   0  0  0  0  0  0  0  0  0  0  0  0
    5.5466    0.5623   -1.2100 H   0  0  0  0  0  0  0  0  0  0  0  0
    6.5181    2.0797   -1.2888 H   0  0  0  0  0  0  0  0  0  0  0  0
   -0.7800   -2.2289    1.3292 H   0  0  0  0  0  0  0  0  0  0  0  0
   -0.0503   -1.4038    2.7367 H   0  0  0  0  0  0  0  0  0  0  0  0
   -1.4466   -0.9315    4.7808 H   0  0  0  0  0  0  0  0  0  0  0  0
   -3.2587   -1.7858    6.2257 H   0  0  0  0  0  0  0  0  0  0  0  0
   -4.9294   -3.3785    5.3216 H   0  0  0  0  0  0  0  0  0  0  0  0
   -4.7859   -4.1197    2.9604 H   0  0  0  0  0  0  0  0  0  0  0  0
   -2.9805   -3.2822    1.5023 H   0  0  0  0  0  0  0  0  0  0  0  0
  1  2  1  0
  2  3  2  0
  3  4  1  0
  3  5  1  0
  5  6  2  0
  6  7  1  0
  7  8  2  0
  8  9  1  0
  9 10  2  0
  9 11  1  0
 11 12  1  0
 12 13  1  0
 13 14  1  0
 14 15  1  0
 14 16  1  0
 16 17  1  0
 17 18  1  0
 18 19  2  0
 19 20  1  0
 20 21  2  0
 21 22  1  0
 22 23  2  0
 16 24  1  0
 24 25  1  0
 25 26  2  0
 25 27  1  0
 27 28  2  0
 28 29  1  0
 29 30  2  0
 30 31  1  0
 31 32  1  0
 31 33  2  0
 33 34  1  0
 12 35  1  0
 35 36  1  0
 36 37  2  0
 37 38  1  0
 38 39  2  0
 39 40  1  0
 40 41  2  0
  8  2  1  0
 23 18  1  0
 33 27  1  0
 41 36  1  0
  1 42  1  0
  1 43  1  0
  1 44  1  0
  4 45  1  0
  5 46  1  0
  6 47  1  0
  7 48  1  0
 11 49  1  0
 12 50  1  1
 13 51  1  0
 13 52  1  0
 14 53  1  6
 15 54  1  0
 16 55  1  6
 17 56  1  0
 17 57  1  0
 19 58  1  0
 20 59  1  0
 21 60  1  0
 22 61  1  0
 23 62  1  0
 24 63  1  0
 28 64  1  0
 29 65  1  0
 30 66  1  0
 32 67  1  0
 34 68  1  0
 34 69  1  0
 34 70  1  0
 35 71  1  0
 35 72  1  0
 37 73  1  0
 38 74  1  0
 39 75  1  0
 40 76  1  0
 41 77  1  0
M  END
$$$$
