
     RDKit          3D

 79 80  0  0  0  0  0  0  0  0999 V2000
    2.6722    1.9117    0.7465 C   0  0  0  0  0  0  0  0  0  0  0  0
    3.8541    2.5027    1.5336 C   0  0  0  0  0  0  0  0  0  0  0  0
    4.2368    3.8766    0.9632 C   0  0  0  0  0  0  0  0  0  0  0  0
    5.0830    1.5489    1.6368 C   0  0  2  0  0  0  0  0  0  0  0  0
    5.8080    1.3102    0.2989 C   0  0  0  0  0  0  0  0  0  0  0  0
    4.7144    0.2569    2.3399 C   0  0  0  0  0  0  0  0  0  0  0  0
    4.7367    0.2339    3.6007 O   0  0  0  0  0  0  0  0  0  0  0  0
    4.2878   -0.9073    1.6065 N   0  0  0  0  0  0  0  0  0  0  0  0
    3.4803   -1.9509    2.1834 C   0  0  0  0  0  0  0  0  0  0  0  0
    3.1810   -1.9115    3.4081 O   0  0  0  0  0  0  0  0  0  0  0  0
    2.9067   -3.0736    1.3421 C   0  0  2  0  0  0  0  0  0  0  0  0
    3.8337   -3.5591    0.4009 O   0  0  0  0  0  0  0  0  0  0  0  0
    1.5269   -2.7038    0.7184 C   0  0  2  0  0  0  0  0  0  0  0  0
    0.8432   -3.8625    0.3058 O   0  0  0  0  0  0  0  0  0  0  0  0
    1.5869   -1.6544   -0.4318 C   0  0  1  0  0  0  0  0  0  0  0  0
    1.8670   -2.2834   -1.6591 O   0  0  0  0  0  0  0  0  0  0  0  0
    0.2911   -0.8190   -0.5345 C   0  0  1  0  0  0  0  0  0  0  0  0
    0.5092    0.2604   -1.4464 O   0  0  0  0  0  0  0  0  0  0  0  0
   -0.2859    1.4131   -1.5480 C   0  0  0  0  0  0  0  0  0  0  0  0
   -1.4531    1.6025   -0.7856 C   0  0  0  0  0  0  0  0  0  0  0  0
   -2.2012    2.7754   -0.9209 C   0  0  0  0  0  0  0  0  0  0  0  0
   -1.8063    3.7784   -1.8238 C   0  0  0  0  0  0  0  0  0  0  0  0
   -2.6104    5.0217   -1.9457 C   0  0  0  0  0  0  0  0  0  0  0  0
   -2.6570    5.7591   -3.1438 C   0  0  0  0  0  0  0  0  0  0  0  0
   -3.4314    6.9194   -3.2086 C   0  0  0  0  0  0  0  0  0  0  0  0
   -4.1556    7.3365   -2.0920 C   0  0  0  0  0  0  0  0  0  0  0  0
   -4.0986    6.5795   -0.9216 C   0  0  0  0  0  0  0  0  0  0  0  0
   -3.3388    5.4529   -0.8761 N   0  0  0  0  0  0  0  0  0  0  0  0
   -0.6330    3.5859   -2.5771 C   0  0  0  0  0  0  0  0  0  0  0  0
    0.1133    2.4124   -2.4403 C   0  0  0  0  0  0  0  0  0  0  0  0
   -0.8783   -1.6558   -0.9882 C   0  0  0  0  0  0  0  0  0  0  0  0
   -1.0156   -1.9142   -2.2150 O   0  0  0  0  0  0  0  0  0  0  0  0
   -1.8035   -2.1782   -0.0210 N   0  0  0  0  0  0  0  0  0  0  0  0
   -2.9360   -2.9979   -0.3544 C   0  0  0  0  0  0  0  0  0  0  0  0
   -3.2054   -3.2601   -1.5589 O   0  0  0  0  0  0  0  0  0  0  0  0
   -3.8038   -3.5719    0.7424 C   0  0  1  0  0  0  0  0  0  0  0  0
   -5.2478   -3.0839    0.5415 C   0  0  0  0  0  0  0  0  0  0  0  0
   -3.6973   -5.1261    0.7819 C   0  0  0  0  0  0  0  0  0  0  0  0
   -4.5673   -5.7329    1.8963 C   0  0  0  0  0  0  0  0  0  0  0  0
   -2.2393   -5.5795    0.9803 C   0  0  0  0  0  0  0  0  0  0  0  0
    1.8274    2.6332    0.7292 H   0  0  0  0  0  0  0  0  0  0  0  0
    2.9530    1.6860   -0.3024 H   0  0  0  0  0  0  0  0  0  0  0  0
    2.3028    0.9890    1.2383 H   0  0  0  0  0  0  0  0  0  0  0  0
    3.4916    2.6826    2.5709 H   0  0  0  0  0  0  0  0  0  0  0  0
    3.3885    4.5848    1.0782 H   0  0  0  0  0  0  0  0  0  0  0  0
    4.4848    3.8045   -0.1170 H   0  0  0  0  0  0  0  0  0  0  0  0
    5.1089    4.2940    1.5100 H   0  0  0  0  0  0  0  0  0  0  0  0
    5.8277    2.0555    2.2922 H   0  0  0  0  0  0  0  0  0  0  0  0
    5.1149    0.9612   -0.4927 H   0  0  0  0  0  0  0  0  0  0  0  0
    6.6104    0.5530    0.4307 H   0  0  0  0  0  0  0  0  0  0  0  0
    6.2928    2.2461   -0.0489 H   0  0  0  0  0  0  0  0  0  0  0  0
    4.5239   -0.9653    0.5949 H   0  0  0  0  0  0  0  0  0  0  0  0
    2.7122   -3.9163    2.0423 H   0  0  0  0  0  0  0  0  0  0  0  0
    3.9397   -2.8881   -0.3180 H   0  0  0  0  0  0  0  0  0  0  0  0
    0.9295   -2.2683    1.5498 H   0  0  0  0  0  0  0  0  0  0  0  0
    1.4323   -4.3576   -0.3208 H   0  0  0  0  0  0  0  0  0  0  0  0
    2.3972   -0.9340   -0.2016 H   0  0  0  0  0  0  0  0  0  0  0  0
    2.2372   -1.5898   -2.2655 H   0  0  0  0  0  0  0  0  0  0  0  0
    0.0848   -0.3897    0.4709 H   0  0  0  0  0  0  0  0  0  0  0  0
   -1.7957    0.8523   -0.0874 H   0  0  0  0  0  0  0  0  0  0  0  0
   -3.0985    2.8919   -0.3257 H   0  0  0  0  0  0  0  0  0  0  0  0
   -2.1248    5.4352   -4.0281 H   0  0  0  0  0  0  0  0  0  0  0  0
   -3.4751    7.4912   -4.1266 H   0  0  0  0  0  0  0  0  0  0  0  0
   -4.7594    8.2337   -2.1349 H   0  0  0  0  0  0  0  0  0  0  0  0
   -4.6587    6.8864   -0.0486 H   0  0  0  0  0  0  0  0  0  0  0  0
   -0.2729    4.3485   -3.2546 H   0  0  0  0  0  0  0  0  0  0  0  0
    1.0161    2.2833   -3.0239 H   0  0  0  0  0  0  0  0  0  0  0  0
   -1.6301   -1.9629    0.9864 H   0  0  0  0  0  0  0  0  0  0  0  0
   -3.4568   -3.1730    1.7214 H   0  0  0  0  0  0  0  0  0  0  0  0
   -5.7122   -3.5777   -0.3390 H   0  0  0  0  0  0  0  0  0  0  0  0
   -5.2637   -1.9836    0.3840 H   0  0  0  0  0  0  0  0  0  0  0  0
   -5.8612   -3.2925    1.4425 H   0  0  0  0  0  0  0  0  0  0  0  0
   -4.0528   -5.5393   -0.1886 H   0  0  0  0  0  0  0  0  0  0  0  0
   -4.3996   -6.8289    1.9672 H   0  0  0  0  0  0  0  0  0  0  0  0
   -5.6451   -5.5860    1.6773 H   0  0  0  0  0  0  0  0  0  0  0  0
   -4.3257   -5.2714    2.8777 H   0  0  0  0  0  0  0  0  0  0  0  0
   -2.1821   -6.6871    1.0456 H   0  0  0  0  0  0  0  0  0  0  0  0
   -1.6110   -5.2693    0.1195 H   0  0  0  0  0  0  0  0  0  0  0  0
   -1.8170   -5.1433    1.9111 H   0  0  0  0  0  0  0  0  0  0  0  0
  1  2  1  0
  2  3  1  0
  2  4  1  0
  4  5  1  0
  4  6  1  0
  6  7  2  0
  6  8  1  0
  8  9  1  0
  9 10  2  0
  9 11  1  0
 11 12  1  0
 11 13  1  0
 13 14  1  0
 13 15  1  0
 15 16  1  0
 15 17  1  0
 17 18  1  0
 18 19  1  0
 19 20  2  0
 20 21  1  0
 21 22  2  0
 22 23  1  0
 23 24  2  0
 24 25  1  0
 25 26  2  0
 26 27  1  0
 27 28  2  0
 22 29  1  0
 29 30  2  0
 17 31  1  0
 31 32  2  0
 31 33  1  0
 33 34  1  0
 34 35  2  0
 34 36  1  0
 36 37  1  0
 36 38  1  0
 38 39  1  0
 38 40  1  0
 28 23  1  0
 30 19  1  0
  1 41  1  0
  1 42  1  0
  1 43  1  0
  2 44  1  0
  3 45  1  0
  3 46  1  0
  3 47  1  0
  4 48  1  1
  5 49  1  0
  5 50  1  0
  5 51  1  0
  8 52  1  0
 11 53  1  1
 12 54  1  0
 13 55  1  1
 14 56  1  0
 15 57  1  1
 16 58  1  0
 17 59  1  1
 20 60  1  0
 21 61  1  0
 24 62  1  0
 25 63  1  0
 26 64  1  0
 27 65  1  0
 29 66  1  0
 30 67  1  0
 33 68  1  0
 36 69  1  1
 37 70  1  0
 37 71  1  0
 37 72  1  0
 38 73  1  0
 39 74  1  0
 39 75  1  0
 39 76  1  0
 40 77  1  0
 40 78  1  0
 40 79  1  0
M  END
$$$$
