
     RDKit          3D

 77 81  0  0  0  0  0  0  0  0999 V2000
    2.9450   -2.7801    2.1245 C   0  0  0  0  0  0  0  0  0  0  0  0
    3.1192   -3.0529    0.6176 C   0  0  0  0  0  0  0  0  0  0  0  0
    1.7549   -3.3571   -0.0319 C   0  0  0  0  0  0  0  0  0  0  0  0
    4.0284   -4.2872    0.4459 C   0  0  0  0  0  0  0  0  0  0  0  0
    3.7525   -1.8944   -0.0428 N   0  0  0  0  0  0  0  0  0  0  0  0
    3.1759   -0.5776   -0.1228 C   0  0  0  0  0  0  0  0  0  0  0  0
    2.0893   -0.3195    0.4597 O   0  0  0  0  0  0  0  0  0  0  0  0
    3.8631    0.4894   -0.8858 C   0  0  0  0  0  0  0  0  0  0  0  0
    5.2358    0.6962   -0.6650 C   0  0  0  0  0  0  0  0  0  0  0  0
    5.9212    1.7055   -1.3430 C   0  0  0  0  0  0  0  0  0  0  0  0
    5.2472    2.5211   -2.2506 C   0  0  0  0  0  0  0  0  0  0  0  0
    3.8866    2.3250   -2.4914 C   0  0  0  0  0  0  0  0  0  0  0  0
    3.1810    1.3058   -1.8278 C   0  0  0  0  0  0  0  0  0  0  0  0
    1.7144    1.1176   -2.1456 C   0  0  0  0  0  0  0  0  0  0  0  0
    0.8274    2.0331   -1.2670 C   0  0  1  0  0  0  0  0  0  0  0  0
    0.8412    3.3643   -1.7246 O   0  0  0  0  0  0  0  0  0  0  0  0
   -0.6183    1.4962   -1.1176 C   0  0  2  0  0  0  0  0  0  0  0  0
   -1.3707    1.3792   -2.4610 C   0  0  0  0  0  0  0  0  0  0  0  0
   -3.0715    0.7307   -2.2539 S   0  0  0  0  0  0  0  0  0  0  0  0
   -2.5795   -0.9398   -1.8143 C   0  0  0  0  0  0  0  0  0  0  0  0
   -2.2769   -1.8687   -2.8162 C   0  0  0  0  0  0  0  0  0  0  0  0
   -1.8988   -3.1712   -2.4788 C   0  0  0  0  0  0  0  0  0  0  0  0
   -1.8261   -3.5576   -1.1320 C   0  0  0  0  0  0  0  0  0  0  0  0
   -1.4524   -4.8639   -0.7803 C   0  0  0  0  0  0  0  0  0  0  0  0
   -1.3829   -5.2351    0.5657 C   0  0  0  0  0  0  0  0  0  0  0  0
   -1.6779   -4.3068    1.5679 C   0  0  0  0  0  0  0  0  0  0  0  0
   -2.0545   -3.0035    1.2313 C   0  0  0  0  0  0  0  0  0  0  0  0
   -2.1360   -2.6202   -0.1163 C   0  0  0  0  0  0  0  0  0  0  0  0
   -2.5214   -1.3183   -0.4673 C   0  0  0  0  0  0  0  0  0  0  0  0
   -1.3666    2.3460   -0.1861 N   0  0  0  0  0  0  0  0  0  0  0  0
   -1.3076    2.1618    1.2371 C   0  0  0  0  0  0  0  0  0  0  0  0
   -0.5643    1.2712    1.7322 O   0  0  0  0  0  0  0  0  0  0  0  0
   -2.0665    3.0526    2.1392 C   0  0  0  0  0  0  0  0  0  0  0  0
   -1.3683    3.7082    3.1637 C   0  0  0  0  0  0  0  0  0  0  0  0
   -2.0334    4.6059    3.9980 C   0  0  0  0  0  0  0  0  0  0  0  0
   -3.3590    4.8416    3.8295 N   0  0  0  0  0  0  0  0  0  0  0  0
   -4.0827    4.2131    2.8661 C   0  0  0  0  0  0  0  0  0  0  0  0
   -5.4522    4.4773    2.7486 C   0  0  0  0  0  0  0  0  0  0  0  0
   -6.2152    3.8122    1.7870 C   0  0  0  0  0  0  0  0  0  0  0  0
   -5.6173    2.8721    0.9461 C   0  0  0  0  0  0  0  0  0  0  0  0
   -4.2502    2.6013    1.0509 C   0  0  0  0  0  0  0  0  0  0  0  0
   -3.4571    3.2841    1.9962 C   0  0  0  0  0  0  0  0  0  0  0  0
    3.9172   -2.4892    2.5772 H   0  0  0  0  0  0  0  0  0  0  0  0
    2.2154   -1.9662    2.3108 H   0  0  0  0  0  0  0  0  0  0  0  0
    2.5705   -3.6880    2.6451 H   0  0  0  0  0  0  0  0  0  0  0  0
    1.3338   -4.2992    0.3784 H   0  0  0  0  0  0  0  0  0  0  0  0
    1.0193   -2.5499    0.1613 H   0  0  0  0  0  0  0  0  0  0  0  0
    1.8669   -3.4713   -1.1314 H   0  0  0  0  0  0  0  0  0  0  0  0
    5.0257   -4.1003    0.8997 H   0  0  0  0  0  0  0  0  0  0  0  0
    4.1739   -4.5149   -0.6323 H   0  0  0  0  0  0  0  0  0  0  0  0
    3.5836   -5.1811    0.9348 H   0  0  0  0  0  0  0  0  0  0  0  0
    4.6609   -2.0423   -0.5398 H   0  0  0  0  0  0  0  0  0  0  0  0
    5.7751    0.0873    0.0505 H   0  0  0  0  0  0  0  0  0  0  0  0
    6.9766    1.8600   -1.1587 H   0  0  0  0  0  0  0  0  0  0  0  0
    5.7805    3.3060   -2.7711 H   0  0  0  0  0  0  0  0  0  0  0  0
    3.3819    2.9653   -3.2046 H   0  0  0  0  0  0  0  0  0  0  0  0
    1.5363    1.3277   -3.2229 H   0  0  0  0  0  0  0  0  0  0  0  0
    1.4327    0.0518   -2.0082 H   0  0  0  0  0  0  0  0  0  0  0  0
    1.2617    2.0435   -0.2435 H   0  0  0  0  0  0  0  0  0  0  0  0
    0.6037    3.3636   -2.6873 H   0  0  0  0  0  0  0  0  0  0  0  0
   -0.5392    0.4757   -0.6885 H   0  0  0  0  0  0  0  0  0  0  0  0
   -1.4571    2.3781   -2.9359 H   0  0  0  0  0  0  0  0  0  0  0  0
   -0.8211    0.7159   -3.1611 H   0  0  0  0  0  0  0  0  0  0  0  0
   -2.3295   -1.5802   -3.8583 H   0  0  0  0  0  0  0  0  0  0  0  0
   -1.6649   -3.8751   -3.2685 H   0  0  0  0  0  0  0  0  0  0  0  0
   -1.2129   -5.5945   -1.5436 H   0  0  0  0  0  0  0  0  0  0  0  0
   -1.0918   -6.2427    0.8329 H   0  0  0  0  0  0  0  0  0  0  0  0
   -1.6156   -4.5986    2.6082 H   0  0  0  0  0  0  0  0  0  0  0  0
   -2.2817   -2.2976    2.0212 H   0  0  0  0  0  0  0  0  0  0  0  0
   -2.7657   -0.5941    0.3012 H   0  0  0  0  0  0  0  0  0  0  0  0
   -1.8633    3.1868   -0.5599 H   0  0  0  0  0  0  0  0  0  0  0  0
   -0.3059    3.5452    3.3005 H   0  0  0  0  0  0  0  0  0  0  0  0
   -1.4914    5.1228    4.7785 H   0  0  0  0  0  0  0  0  0  0  0  0
   -5.9289    5.1922    3.4081 H   0  0  0  0  0  0  0  0  0  0  0  0
   -7.2747    4.0165    1.7019 H   0  0  0  0  0  0  0  0  0  0  0  0
   -6.2166    2.3453    0.2146 H   0  0  0  0  0  0  0  0  0  0  0  0
   -3.8312    1.8440    0.4055 H   0  0  0  0  0  0  0  0  0  0  0  0
  1  2  1  0
  2  3  1  0
  2  4  1  0
  2  5  1  0
  5  6  1  0
  6  7  2  0
  6  8  1  0
  8  9  2  0
  9 10  1  0
 10 11  2  0
 11 12  1  0
 12 13  2  0
 13 14  1  0
 14 15  1  0
 15 16  1  0
 15 17  1  0
 17 18  1  0
 18 19  1  0
 19 20  1  0
 20 21  2  0
 21 22  1  0
 22 23  2  0
 23 24  1  0
 24 25  2  0
 25 26  1  0
 26 27  2  0
 27 28  1  0
 28 29  2  0
 17 30  1  0
 30 31  1  0
 31 32  2  0
 31 33  1  0
 33 34  2  0
 34 35  1  0
 35 36  2  0
 36 37  1  0
 37 38  2  0
 38 39  1  0
 39 40  2  0
 40 41  1  0
 41 42  2  0
 13  8  1  0
 28 23  1  0
 29 20  1  0
 42 33  1  0
 42 37  1  0
  1 43  1  0
  1 44  1  0
  1 45  1  0
  3 46  1  0
  3 47  1  0
  3 48  1  0
  4 49  1  0
  4 50  1  0
  4 51  1  0
  5 52  1  0
  9 53  1  0
 10 54  1  0
 11 55  1  0
 12 56  1  0
 14 57  1  0
 14 58  1  0
 15 59  1  1
 16 60  1  0
 17 61  1  1
 18 62  1  0
 18 63  1  0
 21 64  1  0
 22 65  1  0
 24 66  1  0
 25 67  1  0
 26 68  1  0
 27 69  1  0
 29 70  1  0
 30 71  1  0
 34 72  1  0
 35 73  1  0
 38 74  1  0
 39 75  1  0
 40 76  1  0
 41 77  1  0
M  END
$$$$
