
     RDKit          3D

 79 80  0  0  0  0  0  0  0  0999 V2000
    4.7762    4.3043   -0.0880 C   0  0  0  0  0  0  0  0  0  0  0  0
    4.6784    2.9152    0.5595 C   0  0  0  0  0  0  0  0  0  0  0  0
    5.1259    1.8307   -0.4343 C   0  0  0  0  0  0  0  0  0  0  0  0
    5.4232    2.8511    1.9270 C   0  0  2  0  0  0  0  0  0  0  0  0
    6.9476    3.0421    1.8159 C   0  0  0  0  0  0  0  0  0  0  0  0
    5.0733    1.5758    2.6622 C   0  0  0  0  0  0  0  0  0  0  0  0
    5.8950    0.6186    2.7023 O   0  0  0  0  0  0  0  0  0  0  0  0
    3.7667    1.4344    3.2406 N   0  0  0  0  0  0  0  0  0  0  0  0
    3.2362    0.1838    3.7056 C   0  0  0  0  0  0  0  0  0  0  0  0
    4.0090   -0.7630    4.0176 O   0  0  0  0  0  0  0  0  0  0  0  0
    1.7421   -0.0246    3.7292 C   0  0  2  0  0  0  0  0  0  0  0  0
    1.3775   -0.8697    4.7941 O   0  0  0  0  0  0  0  0  0  0  0  0
    1.2432   -0.5725    2.3668 C   0  0  2  0  0  0  0  0  0  0  0  0
    1.6784    0.2781    1.3324 O   0  0  0  0  0  0  0  0  0  0  0  0
   -0.3041   -0.6759    2.3232 C   0  0  1  0  0  0  0  0  0  0  0  0
   -0.8753    0.6042    2.2015 O   0  0  0  0  0  0  0  0  0  0  0  0
   -0.8094   -1.5858    1.1788 C   0  0  1  0  0  0  0  0  0  0  0  0
   -2.2395   -1.5982    1.1968 O   0  0  0  0  0  0  0  0  0  0  0  0
   -3.0594   -2.4617    0.4517 C   0  0  0  0  0  0  0  0  0  0  0  0
   -4.4428   -2.2671    0.5053 C   0  0  0  0  0  0  0  0  0  0  0  0
   -5.3078   -3.0903   -0.2210 C   0  0  0  0  0  0  0  0  0  0  0  0
   -4.7998   -4.1292   -1.0233 C   0  0  0  0  0  0  0  0  0  0  0  0
   -5.7003   -5.0206   -1.7989 C   0  0  0  0  0  0  0  0  0  0  0  0
   -6.9448   -4.5758   -2.2836 C   0  0  0  0  0  0  0  0  0  0  0  0
   -7.7532   -5.4513   -3.0117 C   0  0  0  0  0  0  0  0  0  0  0  0
   -7.3223   -6.7547   -3.2583 C   0  0  0  0  0  0  0  0  0  0  0  0
   -6.0794   -7.1640   -2.7747 C   0  0  0  0  0  0  0  0  0  0  0  0
   -5.3058   -6.2985   -2.0670 N   0  0  0  0  0  0  0  0  0  0  0  0
   -3.4091   -4.3336   -1.0623 C   0  0  0  0  0  0  0  0  0  0  0  0
   -2.5460   -3.5083   -0.3358 C   0  0  0  0  0  0  0  0  0  0  0  0
   -0.3125   -1.1375   -0.1750 C   0  0  0  0  0  0  0  0  0  0  0  0
    0.5989   -1.7999   -0.7414 O   0  0  0  0  0  0  0  0  0  0  0  0
   -0.8432    0.0480   -0.7894 N   0  0  0  0  0  0  0  0  0  0  0  0
   -0.3270    0.6159   -2.0056 C   0  0  0  0  0  0  0  0  0  0  0  0
    0.4862   -0.0323   -2.7190 O   0  0  0  0  0  0  0  0  0  0  0  0
   -0.7420    2.0020   -2.4425 C   0  0  1  0  0  0  0  0  0  0  0  0
   -2.2523    2.0104   -2.7317 C   0  0  0  0  0  0  0  0  0  0  0  0
   -0.3231    3.0745   -1.3911 C   0  0  0  0  0  0  0  0  0  0  0  0
    1.1971    3.0545   -1.1491 C   0  0  0  0  0  0  0  0  0  0  0  0
   -0.7428    4.4914   -1.8181 C   0  0  0  0  0  0  0  0  0  0  0  0
    4.4665    5.0903    0.6329 H   0  0  0  0  0  0  0  0  0  0  0  0
    4.0996    4.3604   -0.9674 H   0  0  0  0  0  0  0  0  0  0  0  0
    5.8097    4.5146   -0.4342 H   0  0  0  0  0  0  0  0  0  0  0  0
    3.5979    2.7423    0.7614 H   0  0  0  0  0  0  0  0  0  0  0  0
    6.1714    1.9987   -0.7671 H   0  0  0  0  0  0  0  0  0  0  0  0
    4.4692    1.8486   -1.3304 H   0  0  0  0  0  0  0  0  0  0  0  0
    5.0460    0.8219    0.0215 H   0  0  0  0  0  0  0  0  0  0  0  0
    5.0468    3.6898    2.5541 H   0  0  0  0  0  0  0  0  0  0  0  0
    7.1902    4.0281    1.3700 H   0  0  0  0  0  0  0  0  0  0  0  0
    7.4035    3.0152    2.8289 H   0  0  0  0  0  0  0  0  0  0  0  0
    7.4133    2.2417    1.2042 H   0  0  0  0  0  0  0  0  0  0  0  0
    3.1151    2.2488    3.1771 H   0  0  0  0  0  0  0  0  0  0  0  0
    1.2649    0.9619    3.9113 H   0  0  0  0  0  0  0  0  0  0  0  0
    1.7092   -1.7827    4.5877 H   0  0  0  0  0  0  0  0  0  0  0  0
    1.6651   -1.5973    2.2251 H   0  0  0  0  0  0  0  0  0  0  0  0
    2.5447   -0.0763    1.0010 H   0  0  0  0  0  0  0  0  0  0  0  0
   -0.6576   -1.1555    3.2673 H   0  0  0  0  0  0  0  0  0  0  0  0
   -1.0024    0.9591    3.1196 H   0  0  0  0  0  0  0  0  0  0  0  0
   -0.4408   -2.6155    1.3864 H   0  0  0  0  0  0  0  0  0  0  0  0
   -4.8512   -1.4725    1.1170 H   0  0  0  0  0  0  0  0  0  0  0  0
   -6.3728   -2.9235   -0.1318 H   0  0  0  0  0  0  0  0  0  0  0  0
   -7.2824   -3.5602   -2.1265 H   0  0  0  0  0  0  0  0  0  0  0  0
   -8.7105   -5.1170   -3.3903 H   0  0  0  0  0  0  0  0  0  0  0  0
   -7.9423   -7.4387   -3.8232 H   0  0  0  0  0  0  0  0  0  0  0  0
   -5.7283   -8.1699   -2.9621 H   0  0  0  0  0  0  0  0  0  0  0  0
   -2.9855   -5.1267   -1.6661 H   0  0  0  0  0  0  0  0  0  0  0  0
   -1.4839   -3.6971   -0.3947 H   0  0  0  0  0  0  0  0  0  0  0  0
   -1.6109    0.5538   -0.2952 H   0  0  0  0  0  0  0  0  0  0  0  0
   -0.2240    2.2345   -3.4008 H   0  0  0  0  0  0  0  0  0  0  0  0
   -2.8396    1.9802   -1.7895 H   0  0  0  0  0  0  0  0  0  0  0  0
   -2.5316    1.1342   -3.3560 H   0  0  0  0  0  0  0  0  0  0  0  0
   -2.5334    2.9203   -3.3018 H   0  0  0  0  0  0  0  0  0  0  0  0
   -0.8235    2.8538   -0.4223 H   0  0  0  0  0  0  0  0  0  0  0  0
    1.4787    3.8248   -0.3998 H   0  0  0  0  0  0  0  0  0  0  0  0
    1.7468    3.2559   -2.0935 H   0  0  0  0  0  0  0  0  0  0  0  0
    1.5216    2.0718   -0.7495 H   0  0  0  0  0  0  0  0  0  0  0  0
   -0.3539    4.7267   -2.8320 H   0  0  0  0  0  0  0  0  0  0  0  0
   -1.8480    4.5900   -1.8177 H   0  0  0  0  0  0  0  0  0  0  0  0
   -0.3503    5.2450   -1.1021 H   0  0  0  0  0  0  0  0  0  0  0  0
  1  2  1  0
  2  3  1  0
  2  4  1  0
  4  5  1  0
  4  6  1  0
  6  7  2  0
  6  8  1  0
  8  9  1  0
  9 10  2  0
  9 11  1  0
 11 12  1  0
 11 13  1  0
 13 14  1  0
 13 15  1  0
 15 16  1  0
 15 17  1  0
 17 18  1  0
 18 19  1  0
 19 20  2  0
 20 21  1  0
 21 22  2  0
 22 23  1  0
 23 24  2  0
 24 25  1  0
 25 26  2  0
 26 27  1  0
 27 28  2  0
 22 29  1  0
 29 30  2  0
 17 31  1  0
 31 32  2  0
 31 33  1  0
 33 34  1  0
 34 35  2  0
 34 36  1  0
 36 37  1  0
 36 38  1  0
 38 39  1  0
 38 40  1  0
 28 23  1  0
 30 19  1  0
  1 41  1  0
  1 42  1  0
  1 43  1  0
  2 44  1  0
  3 45  1  0
  3 46  1  0
  3 47  1  0
  4 48  1  1
  5 49  1  0
  5 50  1  0
  5 51  1  0
  8 52  1  0
 11 53  1  1
 12 54  1  0
 13 55  1  6
 14 56  1  0
 15 57  1  1
 16 58  1  0
 17 59  1  1
 20 60  1  0
 21 61  1  0
 24 62  1  0
 25 63  1  0
 26 64  1  0
 27 65  1  0
 29 66  1  0
 30 67  1  0
 33 68  1  0
 36 69  1  6
 37 70  1  0
 37 71  1  0
 37 72  1  0
 38 73  1  0
 39 74  1  0
 39 75  1  0
 39 76  1  0
 40 77  1  0
 40 78  1  0
 40 79  1  0
M  END
$$$$
