
     RDKit          3D

 64 68  0  0  0  0  0  0  0  0999 V2000
   -5.5046   -1.8384    2.3894 C   0  0  0  0  0  0  0  0  0  0  0  0
   -4.1110   -1.7708    1.7630 C   0  0  0  0  0  0  0  0  0  0  0  0
   -4.1619   -1.3803    0.2656 C   0  0  0  0  0  0  0  0  0  0  0  0
   -2.8507   -1.5806   -0.4848 C   0  0  0  0  0  0  0  0  0  0  0  0
   -2.8902   -1.6830   -1.8866 C   0  0  0  0  0  0  0  0  0  0  0  0
   -1.7142   -1.8299   -2.6235 C   0  0  0  0  0  0  0  0  0  0  0  0
   -0.4802   -1.8798   -1.9746 C   0  0  0  0  0  0  0  0  0  0  0  0
   -0.4130   -1.7936   -0.5742 C   0  0  0  0  0  0  0  0  0  0  0  0
    0.8482   -1.8064    0.1163 N   0  0  0  0  0  0  0  0  0  0  0  0
    1.9855   -2.5802   -0.2974 C   0  0  0  0  0  0  0  0  0  0  0  0
    1.8694   -3.4741   -1.1790 O   0  0  0  0  0  0  0  0  0  0  0  0
    3.3266   -2.3294    0.3237 C   0  0  0  0  0  0  0  0  0  0  0  0
    3.9802   -1.0924   -0.2946 C   0  0  0  0  0  0  0  0  0  0  0  0
    5.2809   -0.8434    0.3413 N   0  0  0  0  0  0  0  0  0  0  0  0
    5.8737    0.4116   -0.1476 C   0  0  0  0  0  0  0  0  0  0  0  0
    5.2686    1.6040    0.5596 C   0  0  0  0  0  0  0  0  0  0  0  0
    6.1671    2.2718    1.2782 C   0  0  0  0  0  0  0  0  0  0  0  0
    7.4482    1.6196    1.1233 C   0  0  0  0  0  0  0  0  0  0  0  0
    8.6862    1.9695    1.6610 C   0  0  0  0  0  0  0  0  0  0  0  0
    9.8002    1.1807    1.3296 C   0  0  0  0  0  0  0  0  0  0  0  0
    9.6563    0.0734    0.4695 C   0  0  0  0  0  0  0  0  0  0  0  0
    8.3968   -0.2535   -0.0613 C   0  0  0  0  0  0  0  0  0  0  0  0
    7.2999    0.5368    0.2916 C   0  0  0  0  0  0  0  0  0  0  0  0
   -1.5964   -1.6233    0.1607 C   0  0  0  0  0  0  0  0  0  0  0  0
   -4.6838    0.0430    0.0672 C   0  0  0  0  0  0  0  0  0  0  0  0
   -3.9315    1.1678    0.4757 C   0  0  0  0  0  0  0  0  0  0  0  0
   -2.6826    1.0098    1.0677 O   0  0  0  0  0  0  0  0  0  0  0  0
   -4.4024    2.3986    0.3015 O   0  0  0  0  0  0  0  0  0  0  0  0
   -5.5815    2.6508   -0.2513 C   0  0  0  0  0  0  0  0  0  0  0  0
   -6.0062    3.9760   -0.4001 C   0  0  0  0  0  0  0  0  0  0  0  0
   -7.2467    4.2548   -0.9797 C   0  0  0  0  0  0  0  0  0  0  0  0
   -8.0686    3.2112   -1.4130 C   0  0  0  0  0  0  0  0  0  0  0  0
   -7.6543    1.8835   -1.2693 C   0  0  0  0  0  0  0  0  0  0  0  0
   -6.4058    1.5919   -0.6870 C   0  0  0  0  0  0  0  0  0  0  0  0
   -5.9461    0.2751   -0.5212 C   0  0  0  0  0  0  0  0  0  0  0  0
   -6.6631   -0.6937   -0.8966 O   0  0  0  0  0  0  0  0  0  0  0  0
   -5.9890   -0.8393    2.3723 H   0  0  0  0  0  0  0  0  0  0  0  0
   -6.1417   -2.5650    1.8419 H   0  0  0  0  0  0  0  0  0  0  0  0
   -5.4203   -2.1686    3.4461 H   0  0  0  0  0  0  0  0  0  0  0  0
   -3.6422   -2.7743    1.8636 H   0  0  0  0  0  0  0  0  0  0  0  0
   -3.5020   -1.0476    2.3446 H   0  0  0  0  0  0  0  0  0  0  0  0
   -4.8676   -2.1052   -0.1970 H   0  0  0  0  0  0  0  0  0  0  0  0
   -3.8369   -1.6368   -2.4112 H   0  0  0  0  0  0  0  0  0  0  0  0
   -1.7588   -1.8928   -3.7032 H   0  0  0  0  0  0  0  0  0  0  0  0
    0.4197   -1.9547   -2.5702 H   0  0  0  0  0  0  0  0  0  0  0  0
    0.9216   -1.2765    1.0144 H   0  0  0  0  0  0  0  0  0  0  0  0
    3.2040   -2.1799    1.4182 H   0  0  0  0  0  0  0  0  0  0  0  0
    3.9813   -3.2151    0.1701 H   0  0  0  0  0  0  0  0  0  0  0  0
    3.3047   -0.2221   -0.1415 H   0  0  0  0  0  0  0  0  0  0  0  0
    4.1128   -1.2521   -1.3893 H   0  0  0  0  0  0  0  0  0  0  0  0
    5.9114   -1.6326    0.0634 H   0  0  0  0  0  0  0  0  0  0  0  0
    5.7997    0.5148   -1.2537 H   0  0  0  0  0  0  0  0  0  0  0  0
    4.2298    1.8985    0.4905 H   0  0  0  0  0  0  0  0  0  0  0  0
    5.9654    3.1598    1.8627 H   0  0  0  0  0  0  0  0  0  0  0  0
    8.7881    2.8278    2.3124 H   0  0  0  0  0  0  0  0  0  0  0  0
   10.7740    1.4277    1.7319 H   0  0  0  0  0  0  0  0  0  0  0  0
   10.5203   -0.5260    0.2136 H   0  0  0  0  0  0  0  0  0  0  0  0
    8.2816   -1.0974   -0.7289 H   0  0  0  0  0  0  0  0  0  0  0  0
   -1.5236   -1.5279    1.2350 H   0  0  0  0  0  0  0  0  0  0  0  0
   -2.1412    1.8144    1.3592 H   0  0  0  0  0  0  0  0  0  0  0  0
   -5.3749    4.7898   -0.0663 H   0  0  0  0  0  0  0  0  0  0  0  0
   -7.5717    5.2810   -1.0929 H   0  0  0  0  0  0  0  0  0  0  0  0
   -9.0289    3.4315   -1.8613 H   0  0  0  0  0  0  0  0  0  0  0  0
   -8.3086    1.0917   -1.6128 H   0  0  0  0  0  0  0  0  0  0  0  0
  1  2  1  0
  2  3  1  0
  3  4  1  0
  4  5  2  0
  5  6  1  0
  6  7  2  0
  7  8  1  0
  8  9  1  0
  9 10  1  0
 10 11  2  0
 10 12  1  0
 12 13  1  0
 13 14  1  0
 14 15  1  0
 15 16  1  0
 16 17  2  0
 17 18  1  0
 18 19  2  0
 19 20  1  0
 20 21  2  0
 21 22  1  0
 22 23  2  0
  8 24  2  0
  3 25  1  0
 25 26  2  0
 26 27  1  0
 26 28  1  0
 28 29  1  0
 29 30  2  0
 30 31  1  0
 31 32  2  0
 32 33  1  0
 33 34  2  0
 34 35  1  0
 35 36  2  0
 23 15  1  0
 23 18  1  0
 24  4  1  0
 34 29  1  0
 35 25  1  0
  1 37  1  0
  1 38  1  0
  1 39  1  0
  2 40  1  0
  2 41  1  0
  3 42  1  0
  5 43  1  0
  6 44  1  0
  7 45  1  0
  9 46  1  0
 12 47  1  0
 12 48  1  0
 13 49  1  0
 13 50  1  0
 14 51  1  0
 15 52  1  0
 16 53  1  0
 17 54  1  0
 19 55  1  0
 20 56  1  0
 21 57  1  0
 22 58  1  0
 24 59  1  0
 27 60  1  0
 30 61  1  0
 31 62  1  0
 32 63  1  0
 33 64  1  0
M  END
$$$$
