
     RDKit          3D

 69 74  0  0  0  0  0  0  0  0999 V2000
   -3.5143    0.8123   -2.6112 O   0  0  0  0  0  0  0  0  0  0  0  0
   -3.2975    0.6812   -1.2422 C   0  0  0  0  0  0  0  0  0  0  0  0
   -3.8383    1.5739   -0.4224 O   0  0  0  0  0  0  0  0  0  0  0  0
   -3.6962    1.5444    0.8984 C   0  0  0  0  0  0  0  0  0  0  0  0
   -4.3934    2.6261    1.6871 C   0  0  0  0  0  0  0  0  0  0  0  0
   -5.7768    2.1895    2.1931 C   0  0  0  0  0  0  0  0  0  0  0  0
   -5.7389    1.2975    3.4479 C   0  0  0  0  0  0  0  0  0  0  0  0
   -5.3383   -0.1627    3.1517 C   0  0  0  0  0  0  0  0  0  0  0  0
   -3.9081   -0.5153    3.5981 C   0  0  0  0  0  0  0  0  0  0  0  0
   -2.8128    0.3836    3.0058 C   0  0  0  0  0  0  0  0  0  0  0  0
   -2.9355    0.5147    1.5003 C   0  0  0  0  0  0  0  0  0  0  0  0
   -2.3646   -0.4620    0.6628 C   0  0  0  0  0  0  0  0  0  0  0  0
   -1.7143   -1.4171    1.1691 O   0  0  0  0  0  0  0  0  0  0  0  0
   -2.5244   -0.3796   -0.7354 C   0  0  0  0  0  0  0  0  0  0  0  0
   -1.9159   -1.4162   -1.6741 C   0  0  0  0  0  0  0  0  0  0  0  0
   -2.6292   -2.7754   -1.4824 C   0  0  0  0  0  0  0  0  0  0  0  0
   -2.5798   -3.7191   -2.6754 C   0  0  0  0  0  0  0  0  0  0  0  0
   -3.8703   -2.9879   -2.3386 C   0  0  0  0  0  0  0  0  0  0  0  0
   -0.4040   -1.4787   -1.5008 C   0  0  0  0  0  0  0  0  0  0  0  0
    0.2482   -2.5494   -0.8571 C   0  0  0  0  0  0  0  0  0  0  0  0
    1.6344   -2.5384   -0.6966 C   0  0  0  0  0  0  0  0  0  0  0  0
    2.3911   -1.4653   -1.1683 C   0  0  0  0  0  0  0  0  0  0  0  0
    1.7647   -0.3836   -1.8127 C   0  0  0  0  0  0  0  0  0  0  0  0
    2.5082    0.7522   -2.2929 N   0  0  0  0  0  0  0  0  0  0  0  0
    4.2421    0.8575   -2.2900 S   0  0  0  0  0  0  0  0  0  0  0  0
    4.6473    2.0603   -3.0947 O   0  0  0  0  0  0  0  0  0  0  0  0
    4.7998   -0.3782   -2.9402 O   0  0  0  0  0  0  0  0  0  0  0  0
    4.8734    1.0335   -0.6402 C   0  0  0  0  0  0  0  0  0  0  0  0
    3.9590    1.2193    0.4099 C   0  0  0  0  0  0  0  0  0  0  0  0
    4.3958    1.3323    1.7285 C   0  0  0  0  0  0  0  0  0  0  0  0
    5.7543    1.2720    2.0265 C   0  0  0  0  0  0  0  0  0  0  0  0
    6.6951    1.1109    1.0010 C   0  0  0  0  0  0  0  0  0  0  0  0
    8.0639    1.0674    1.3102 C   0  0  0  0  0  0  0  0  0  0  0  0
    9.0100    0.9225    0.2959 C   0  0  0  0  0  0  0  0  0  0  0  0
    8.6012    0.8247   -1.0332 C   0  0  0  0  0  0  0  0  0  0  0  0
    7.2432    0.8642   -1.3589 C   0  0  0  0  0  0  0  0  0  0  0  0
    6.2643    0.9982   -0.3501 C   0  0  0  0  0  0  0  0  0  0  0  0
    0.3699   -0.4006   -1.9683 C   0  0  0  0  0  0  0  0  0  0  0  0
   -4.0725    1.5742   -2.9766 H   0  0  0  0  0  0  0  0  0  0  0  0
   -3.7674    3.0205    2.5118 H   0  0  0  0  0  0  0  0  0  0  0  0
   -4.5453    3.4922    1.0063 H   0  0  0  0  0  0  0  0  0  0  0  0
   -6.3397    3.1111    2.4585 H   0  0  0  0  0  0  0  0  0  0  0  0
   -6.3493    1.6938    1.3782 H   0  0  0  0  0  0  0  0  0  0  0  0
   -5.0918    1.7513    4.2295 H   0  0  0  0  0  0  0  0  0  0  0  0
   -6.7676    1.2872    3.8710 H   0  0  0  0  0  0  0  0  0  0  0  0
   -5.4729   -0.4097    2.0761 H   0  0  0  0  0  0  0  0  0  0  0  0
   -6.0293   -0.8359    3.7050 H   0  0  0  0  0  0  0  0  0  0  0  0
   -3.7022   -1.5691    3.3088 H   0  0  0  0  0  0  0  0  0  0  0  0
   -3.8497   -0.4635    4.7072 H   0  0  0  0  0  0  0  0  0  0  0  0
   -2.8162    1.3671    3.5111 H   0  0  0  0  0  0  0  0  0  0  0  0
   -1.8237   -0.0518    3.2657 H   0  0  0  0  0  0  0  0  0  0  0  0
   -2.0708   -1.0944   -2.7276 H   0  0  0  0  0  0  0  0  0  0  0  0
   -2.6745   -3.2619   -0.4846 H   0  0  0  0  0  0  0  0  0  0  0  0
   -2.0616   -3.3352   -3.5801 H   0  0  0  0  0  0  0  0  0  0  0  0
   -2.5859   -4.7962   -2.4060 H   0  0  0  0  0  0  0  0  0  0  0  0
   -4.1273   -2.1744   -3.0503 H   0  0  0  0  0  0  0  0  0  0  0  0
   -4.6443   -3.6354   -1.8752 H   0  0  0  0  0  0  0  0  0  0  0  0
   -0.3034   -3.3927   -0.4664 H   0  0  0  0  0  0  0  0  0  0  0  0
    2.1247   -3.3635   -0.1960 H   0  0  0  0  0  0  0  0  0  0  0  0
    3.4593   -1.4851   -1.0103 H   0  0  0  0  0  0  0  0  0  0  0  0
    1.9888    1.5614   -2.7011 H   0  0  0  0  0  0  0  0  0  0  0  0
    2.8972    1.2769    0.2157 H   0  0  0  0  0  0  0  0  0  0  0  0
    3.6752    1.4673    2.5249 H   0  0  0  0  0  0  0  0  0  0  0  0
    6.0709    1.3603    3.0592 H   0  0  0  0  0  0  0  0  0  0  0  0
    8.4019    1.1489    2.3366 H   0  0  0  0  0  0  0  0  0  0  0  0
   10.0640    0.8914    0.5404 H   0  0  0  0  0  0  0  0  0  0  0  0
    9.3407    0.7208   -1.8168 H   0  0  0  0  0  0  0  0  0  0  0  0
    6.9798    0.7997   -2.4039 H   0  0  0  0  0  0  0  0  0  0  0  0
   -0.1201    0.4361   -2.4525 H   0  0  0  0  0  0  0  0  0  0  0  0
  1  2  1  0
  2  3  1  0
  3  4  1  0
  4  5  1  0
  5  6  1  0
  6  7  1  0
  7  8  1  0
  8  9  1  0
  9 10  1  0
 10 11  1  0
 11 12  1  0
 12 13  2  0
 12 14  1  0
 14 15  1  0
 15 16  1  0
 16 17  1  0
 17 18  1  0
 15 19  1  0
 19 20  2  0
 20 21  1  0
 21 22  2  0
 22 23  1  0
 23 24  1  0
 24 25  1  0
 25 26  2  0
 25 27  2  0
 25 28  1  0
 28 29  2  0
 29 30  1  0
 30 31  2  0
 31 32  1  0
 32 33  2  0
 33 34  1  0
 34 35  2  0
 35 36  1  0
 36 37  2  0
 23 38  2  0
 11  4  2  0
 14  2  2  0
 18 16  1  0
 37 28  1  0
 37 32  1  0
 38 19  1  0
  1 39  1  0
  5 40  1  0
  5 41  1  0
  6 42  1  0
  6 43  1  0
  7 44  1  0
  7 45  1  0
  8 46  1  0
  8 47  1  0
  9 48  1  0
  9 49  1  0
 10 50  1  0
 10 51  1  0
 15 52  1  0
 16 53  1  0
 17 54  1  0
 17 55  1  0
 18 56  1  0
 18 57  1  0
 20 58  1  0
 21 59  1  0
 22 60  1  0
 24 61  1  0
 29 62  1  0
 30 63  1  0
 31 64  1  0
 33 65  1  0
 34 66  1  0
 35 67  1  0
 36 68  1  0
 38 69  1  0
M  END
$$$$
