
     RDKit          3D

 69 74  0  0  0  0  0  0  0  0999 V2000
   -1.2511   -2.8399   -1.1757 O   0  0  0  0  0  0  0  0  0  0  0  0
   -2.0447   -1.8211   -0.6553 C   0  0  0  0  0  0  0  0  0  0  0  0
   -3.2795   -2.1118   -0.2654 O   0  0  0  0  0  0  0  0  0  0  0  0
   -4.1258   -1.2205    0.2401 C   0  0  0  0  0  0  0  0  0  0  0  0
   -5.4824   -1.7391    0.6707 C   0  0  0  0  0  0  0  0  0  0  0  0
   -6.7387   -0.9962    0.1590 C   0  0  0  0  0  0  0  0  0  0  0  0
   -6.6781   -0.4539   -1.2788 C   0  0  0  0  0  0  0  0  0  0  0  0
   -5.7551    0.7607   -1.5304 C   0  0  0  0  0  0  0  0  0  0  0  0
   -5.5484    1.7304   -0.3408 C   0  0  0  0  0  0  0  0  0  0  0  0
   -4.6847    1.1970    0.8302 C   0  0  0  0  0  0  0  0  0  0  0  0
   -3.7119    0.1233    0.3966 C   0  0  0  0  0  0  0  0  0  0  0  0
   -2.4155    0.4740   -0.0252 C   0  0  0  0  0  0  0  0  0  0  0  0
   -2.0365    1.6744    0.0515 O   0  0  0  0  0  0  0  0  0  0  0  0
   -1.5493   -0.5084   -0.5457 C   0  0  0  0  0  0  0  0  0  0  0  0
   -0.1368   -0.1707   -1.0106 C   0  0  0  0  0  0  0  0  0  0  0  0
   -0.1861    0.7473   -2.2547 C   0  0  0  0  0  0  0  0  0  0  0  0
   -0.2009    0.0334   -3.5997 C   0  0  0  0  0  0  0  0  0  0  0  0
    1.0634    0.7328   -3.1245 C   0  0  0  0  0  0  0  0  0  0  0  0
    0.6931    0.3941    0.1330 C   0  0  0  0  0  0  0  0  0  0  0  0
    0.9560    1.7721    0.2776 C   0  0  0  0  0  0  0  0  0  0  0  0
    1.7477    2.2349    1.3311 C   0  0  0  0  0  0  0  0  0  0  0  0
    2.2967    1.3353    2.2452 C   0  0  0  0  0  0  0  0  0  0  0  0
    2.0445   -0.0381    2.1201 C   0  0  0  0  0  0  0  0  0  0  0  0
    2.6786   -0.9835    2.9904 N   0  0  0  0  0  0  0  0  0  0  0  0
    4.3722   -0.8698    3.3506 S   0  0  0  0  0  0  0  0  0  0  0  0
    4.9479   -2.2484    3.5127 O   0  0  0  0  0  0  0  0  0  0  0  0
    4.5411   -0.1168    4.6406 O   0  0  0  0  0  0  0  0  0  0  0  0
    5.2189   -0.0453    2.0246 C   0  0  0  0  0  0  0  0  0  0  0  0
    5.9809    1.0939    2.3287 C   0  0  0  0  0  0  0  0  0  0  0  0
    6.5824    1.8426    1.3183 C   0  0  0  0  0  0  0  0  0  0  0  0
    6.4263    1.4762   -0.0162 C   0  0  0  0  0  0  0  0  0  0  0  0
    5.6789    0.3402   -0.3535 C   0  0  0  0  0  0  0  0  0  0  0  0
    5.5136   -0.0130   -1.7022 C   0  0  0  0  0  0  0  0  0  0  0  0
    4.7706   -1.1416   -2.0482 C   0  0  0  0  0  0  0  0  0  0  0  0
    4.2012   -1.9357   -1.0542 C   0  0  0  0  0  0  0  0  0  0  0  0
    4.3617   -1.6027    0.2927 C   0  0  0  0  0  0  0  0  0  0  0  0
    5.0825   -0.4484    0.6683 C   0  0  0  0  0  0  0  0  0  0  0  0
    1.2186   -0.4967    1.0858 C   0  0  0  0  0  0  0  0  0  0  0  0
   -1.6073   -3.7846   -1.2557 H   0  0  0  0  0  0  0  0  0  0  0  0
   -5.5110   -1.7600    1.7810 H   0  0  0  0  0  0  0  0  0  0  0  0
   -5.5634   -2.7984    0.3403 H   0  0  0  0  0  0  0  0  0  0  0  0
   -7.5783   -1.7250    0.1961 H   0  0  0  0  0  0  0  0  0  0  0  0
   -7.0557   -0.1994    0.8593 H   0  0  0  0  0  0  0  0  0  0  0  0
   -7.7125   -0.1548   -1.5580 H   0  0  0  0  0  0  0  0  0  0  0  0
   -6.3905   -1.2779   -1.9675 H   0  0  0  0  0  0  0  0  0  0  0  0
   -6.1976    1.3469   -2.3654 H   0  0  0  0  0  0  0  0  0  0  0  0
   -4.7758    0.4148   -1.9238 H   0  0  0  0  0  0  0  0  0  0  0  0
   -5.0454    2.6370   -0.7433 H   0  0  0  0  0  0  0  0  0  0  0  0
   -6.5356    2.0631    0.0463 H   0  0  0  0  0  0  0  0  0  0  0  0
   -5.3152    0.8243    1.6609 H   0  0  0  0  0  0  0  0  0  0  0  0
   -4.1394    2.0514    1.2862 H   0  0  0  0  0  0  0  0  0  0  0  0
    0.3829   -1.1079   -1.3089 H   0  0  0  0  0  0  0  0  0  0  0  0
   -0.7445    1.7074   -2.2381 H   0  0  0  0  0  0  0  0  0  0  0  0
   -0.7388    0.5780   -4.4041 H   0  0  0  0  0  0  0  0  0  0  0  0
   -0.1406   -1.0756   -3.5743 H   0  0  0  0  0  0  0  0  0  0  0  0
    1.8733    0.0423   -2.8044 H   0  0  0  0  0  0  0  0  0  0  0  0
    1.2716    1.6932   -3.6414 H   0  0  0  0  0  0  0  0  0  0  0  0
    0.5579    2.4961   -0.4193 H   0  0  0  0  0  0  0  0  0  0  0  0
    1.9471    3.2939    1.4316 H   0  0  0  0  0  0  0  0  0  0  0  0
    2.9237    1.7077    3.0449 H   0  0  0  0  0  0  0  0  0  0  0  0
    2.2175   -1.9061    3.1552 H   0  0  0  0  0  0  0  0  0  0  0  0
    6.0993    1.4201    3.3535 H   0  0  0  0  0  0  0  0  0  0  0  0
    7.1609    2.7218    1.5711 H   0  0  0  0  0  0  0  0  0  0  0  0
    6.8898    2.0821   -0.7858 H   0  0  0  0  0  0  0  0  0  0  0  0
    5.9560    0.5866   -2.4890 H   0  0  0  0  0  0  0  0  0  0  0  0
    4.6413   -1.4052   -3.0899 H   0  0  0  0  0  0  0  0  0  0  0  0
    3.6334   -2.8157   -1.3279 H   0  0  0  0  0  0  0  0  0  0  0  0
    3.9148   -2.2573    1.0259 H   0  0  0  0  0  0  0  0  0  0  0  0
    1.0307   -1.5598    0.9901 H   0  0  0  0  0  0  0  0  0  0  0  0
  1  2  1  0
  2  3  1  0
  3  4  1  0
  4  5  1  0
  5  6  1  0
  6  7  1  0
  7  8  1  0
  8  9  1  0
  9 10  1  0
 10 11  1  0
 11 12  1  0
 12 13  2  0
 12 14  1  0
 14 15  1  0
 15 16  1  0
 16 17  1  0
 17 18  1  0
 15 19  1  0
 19 20  2  0
 20 21  1  0
 21 22  2  0
 22 23  1  0
 23 24  1  0
 24 25  1  0
 25 26  2  0
 25 27  2  0
 25 28  1  0
 28 29  2  0
 29 30  1  0
 30 31  2  0
 31 32  1  0
 32 33  2  0
 33 34  1  0
 34 35  2  0
 35 36  1  0
 36 37  2  0
 23 38  2  0
 11  4  2  0
 14  2  2  0
 18 16  1  0
 37 28  1  0
 37 32  1  0
 38 19  1  0
  1 39  1  0
  5 40  1  0
  5 41  1  0
  6 42  1  0
  6 43  1  0
  7 44  1  0
  7 45  1  0
  8 46  1  0
  8 47  1  0
  9 48  1  0
  9 49  1  0
 10 50  1  0
 10 51  1  0
 15 52  1  0
 16 53  1  0
 17 54  1  0
 17 55  1  0
 18 56  1  0
 18 57  1  0
 20 58  1  0
 21 59  1  0
 22 60  1  0
 24 61  1  0
 29 62  1  0
 30 63  1  0
 31 64  1  0
 33 65  1  0
 34 66  1  0
 35 67  1  0
 36 68  1  0
 38 69  1  0
M  END
$$$$
