
     RDKit          3D

 86 90  0  0  0  0  0  0  0  0999 V2000
   -1.8415   -0.4463    1.6072 O   0  0  0  0  0  0  0  0  0  0  0  0
   -0.7970   -1.1160    0.9464 C   0  0  2  0  0  0  0  0  0  0  0  0
    0.5704   -0.8991    1.6580 C   0  0  1  0  0  0  0  0  0  0  0  0
    1.5193   -1.8100    1.1629 O   0  0  0  0  0  0  0  0  0  0  0  0
    1.1389    0.5436    1.5756 C   0  0  1  0  0  0  0  0  0  0  0  0
    2.4299    0.7032    2.4204 C   0  0  0  0  0  0  0  0  0  0  0  0
    2.1733    0.5313    3.8980 C   0  0  0  0  0  0  0  0  0  0  0  0
    1.5725    1.5654    4.6359 C   0  0  0  0  0  0  0  0  0  0  0  0
    1.3128    1.3992    5.9997 C   0  0  0  0  0  0  0  0  0  0  0  0
    1.6475    0.2006    6.6355 C   0  0  0  0  0  0  0  0  0  0  0  0
    2.2418   -0.8343    5.9084 C   0  0  0  0  0  0  0  0  0  0  0  0
    2.5038   -0.6723    4.5445 C   0  0  0  0  0  0  0  0  0  0  0  0
    1.3040    0.9752    0.1668 N   0  0  0  0  0  0  0  0  0  0  0  0
    2.6003    1.0604   -0.5515 C   0  0  0  0  0  0  0  0  0  0  0  0
    2.8346   -0.1354   -1.5058 C   0  0  0  0  0  0  0  0  0  0  0  0
    2.0353    0.0012   -2.8363 C   0  0  0  0  0  0  0  0  0  0  0  0
    2.9045    0.5063   -3.9932 C   0  0  0  0  0  0  0  0  0  0  0  0
    4.0795   -0.4487   -4.2786 C   0  0  0  0  0  0  0  0  0  0  0  0
    4.6128   -1.1555   -3.0164 C   0  0  0  0  0  0  0  0  0  0  0  0
    4.3537   -0.3268   -1.7549 C   0  0  0  0  0  0  0  0  0  0  0  0
    0.1276    1.5147   -0.4662 C   0  0  0  0  0  0  0  0  0  0  0  0
   -0.0143    2.8037   -0.6007 N   0  0  0  0  0  0  0  0  0  0  0  0
    0.9168    3.7503   -0.1443 C   0  0  0  0  0  0  0  0  0  0  0  0
    1.6839    4.5303    0.2328 N   0  0  0  0  0  0  0  0  0  0  0  0
   -0.9461    0.6273   -0.8668 N   0  0  0  0  0  0  0  0  0  0  0  0
   -2.0800    1.2124   -1.6251 C   0  0  0  0  0  0  0  0  0  0  0  0
   -3.0474    1.9995   -0.7034 C   0  0  0  0  0  0  0  0  0  0  0  0
   -3.5976    3.2599   -1.4212 C   0  0  0  0  0  0  0  0  0  0  0  0
   -4.9187    3.7882   -0.8204 C   0  0  0  0  0  0  0  0  0  0  0  0
   -5.0858    3.3871    0.6488 C   0  0  0  0  0  0  0  0  0  0  0  0
   -5.0846    1.8552    0.8232 C   0  0  0  0  0  0  0  0  0  0  0  0
   -4.2165    1.1200   -0.2187 C   0  0  0  0  0  0  0  0  0  0  0  0
   -0.7842   -0.8270   -0.5904 C   0  0  2  0  0  0  0  0  0  0  0  0
   -1.7800   -1.7331   -1.3652 C   0  0  0  0  0  0  0  0  0  0  0  0
   -1.4436   -3.2024   -1.2516 C   0  0  0  0  0  0  0  0  0  0  0  0
   -2.2506   -4.0625   -0.4861 C   0  0  0  0  0  0  0  0  0  0  0  0
   -1.9236   -5.4169   -0.3685 C   0  0  0  0  0  0  0  0  0  0  0  0
   -0.7927   -5.9235   -1.0141 C   0  0  0  0  0  0  0  0  0  0  0  0
    0.0128   -5.0770   -1.7803 C   0  0  0  0  0  0  0  0  0  0  0  0
   -0.3103   -3.7223   -1.9012 C   0  0  0  0  0  0  0  0  0  0  0  0
   -1.6539    0.5245    1.5860 H   0  0  0  0  0  0  0  0  0  0  0  0
   -1.0061   -2.1947    1.0926 H   0  0  0  0  0  0  0  0  0  0  0  0
    0.3920   -1.1218    2.7359 H   0  0  0  0  0  0  0  0  0  0  0  0
    1.3019   -2.6991    1.5477 H   0  0  0  0  0  0  0  0  0  0  0  0
    0.4031    1.2280    2.0534 H   0  0  0  0  0  0  0  0  0  0  0  0
    2.8418    1.7249    2.2670 H   0  0  0  0  0  0  0  0  0  0  0  0
    3.2025   -0.0241    2.0876 H   0  0  0  0  0  0  0  0  0  0  0  0
    1.3042    2.4975    4.1539 H   0  0  0  0  0  0  0  0  0  0  0  0
    0.8502    2.1991    6.5632 H   0  0  0  0  0  0  0  0  0  0  0  0
    1.4447    0.0731    7.6910 H   0  0  0  0  0  0  0  0  0  0  0  0
    2.4973   -1.7634    6.4012 H   0  0  0  0  0  0  0  0  0  0  0  0
    2.9569   -1.4861    3.9920 H   0  0  0  0  0  0  0  0  0  0  0  0
    3.4455    1.1253    0.1573 H   0  0  0  0  0  0  0  0  0  0  0  0
    2.6575    2.0024   -1.1371 H   0  0  0  0  0  0  0  0  0  0  0  0
    2.4884   -1.0575   -0.9983 H   0  0  0  0  0  0  0  0  0  0  0  0
    1.1672    0.6805   -2.7275 H   0  0  0  0  0  0  0  0  0  0  0  0
    1.6257   -0.9933   -3.1189 H   0  0  0  0  0  0  0  0  0  0  0  0
    2.2828    0.6116   -4.9085 H   0  0  0  0  0  0  0  0  0  0  0  0
    3.2967    1.5150   -3.7365 H   0  0  0  0  0  0  0  0  0  0  0  0
    4.9008    0.1326   -4.7516 H   0  0  0  0  0  0  0  0  0  0  0  0
    3.7571   -1.2212   -5.0104 H   0  0  0  0  0  0  0  0  0  0  0  0
    5.7039   -1.3375   -3.1253 H   0  0  0  0  0  0  0  0  0  0  0  0
    4.1164   -2.1450   -2.9059 H   0  0  0  0  0  0  0  0  0  0  0  0
    4.8579    0.6591   -1.8699 H   0  0  0  0  0  0  0  0  0  0  0  0
    4.8118   -0.8369   -0.8793 H   0  0  0  0  0  0  0  0  0  0  0  0
   -2.6556    0.4684   -2.2032 H   0  0  0  0  0  0  0  0  0  0  0  0
   -1.6592    1.8831   -2.4071 H   0  0  0  0  0  0  0  0  0  0  0  0
   -2.4903    2.3448    0.1954 H   0  0  0  0  0  0  0  0  0  0  0  0
   -3.7755    3.0420   -2.4978 H   0  0  0  0  0  0  0  0  0  0  0  0
   -2.8265    4.0598   -1.3702 H   0  0  0  0  0  0  0  0  0  0  0  0
   -4.9511    4.8956   -0.9090 H   0  0  0  0  0  0  0  0  0  0  0  0
   -5.7771    3.3817   -1.3998 H   0  0  0  0  0  0  0  0  0  0  0  0
   -4.2546    3.8303    1.2404 H   0  0  0  0  0  0  0  0  0  0  0  0
   -6.0372    3.8048    1.0433 H   0  0  0  0  0  0  0  0  0  0  0  0
   -6.1267    1.4746    0.7508 H   0  0  0  0  0  0  0  0  0  0  0  0
   -4.7155    1.6159    1.8445 H   0  0  0  0  0  0  0  0  0  0  0  0
   -3.8433    0.1780    0.2274 H   0  0  0  0  0  0  0  0  0  0  0  0
   -4.8496    0.8418   -1.0906 H   0  0  0  0  0  0  0  0  0  0  0  0
    0.2079   -1.1251   -0.9768 H   0  0  0  0  0  0  0  0  0  0  0  0
   -2.8166   -1.5497   -1.0123 H   0  0  0  0  0  0  0  0  0  0  0  0
   -1.7340   -1.4862   -2.4478 H   0  0  0  0  0  0  0  0  0  0  0  0
   -3.1261   -3.6834    0.0262 H   0  0  0  0  0  0  0  0  0  0  0  0
   -2.5463   -6.0735    0.2253 H   0  0  0  0  0  0  0  0  0  0  0  0
   -0.5407   -6.9720   -0.9210 H   0  0  0  0  0  0  0  0  0  0  0  0
    0.8880   -5.4706   -2.2808 H   0  0  0  0  0  0  0  0  0  0  0  0
    0.3222   -3.0791   -2.4996 H   0  0  0  0  0  0  0  0  0  0  0  0
  1  2  1  0
  2  3  1  0
  3  4  1  0
  3  5  1  0
  5  6  1  0
  6  7  1  0
  7  8  2  0
  8  9  1  0
  9 10  2  0
 10 11  1  0
 11 12  2  0
  5 13  1  0
 13 14  1  0
 14 15  1  0
 15 16  1  0
 16 17  1  0
 17 18  1  0
 18 19  1  0
 19 20  1  0
 13 21  1  0
 21 22  2  3
 22 23  1  0
 23 24  3  0
 21 25  1  0
 25 26  1  0
 26 27  1  0
 27 28  1  0
 28 29  1  0
 29 30  1  0
 30 31  1  0
 31 32  1  0
 25 33  1  0
 33 34  1  0
 34 35  1  0
 35 36  2  0
 36 37  1  0
 37 38  2  0
 38 39  1  0
 39 40  2  0
 12  7  1  0
 20 15  1  0
 32 27  1  0
 33  2  1  0
 40 35  1  0
  1 41  1  0
  2 42  1  6
  3 43  1  1
  4 44  1  0
  5 45  1  1
  6 46  1  0
  6 47  1  0
  8 48  1  0
  9 49  1  0
 10 50  1  0
 11 51  1  0
 12 52  1  0
 14 53  1  0
 14 54  1  0
 15 55  1  0
 16 56  1  0
 16 57  1  0
 17 58  1  0
 17 59  1  0
 18 60  1  0
 18 61  1  0
 19 62  1  0
 19 63  1  0
 20 64  1  0
 20 65  1  0
 26 66  1  0
 26 67  1  0
 27 68  1  0
 28 69  1  0
 28 70  1  0
 29 71  1  0
 29 72  1  0
 30 73  1  0
 30 74  1  0
 31 75  1  0
 31 76  1  0
 32 77  1  0
 32 78  1  0
 33 79  1  6
 34 80  1  0
 34 81  1  0
 36 82  1  0
 37 83  1  0
 38 84  1  0
 39 85  1  0
 40 86  1  0
M  END
$$$$
