
     RDKit          3D

 71 74  0  0  0  0  0  0  0  0999 V2000
    3.2298    3.4803    1.0159 C   0  0  0  0  0  0  0  0  0  0  0  0
    2.1271    3.4156   -0.0599 C   0  0  0  0  0  0  0  0  0  0  0  0
    1.0182    4.4171    0.3146 C   0  0  0  0  0  0  0  0  0  0  0  0
    1.5992    1.9459   -0.2946 C   0  0  0  0  0  0  0  0  0  0  0  0
    2.7617    0.9718   -0.6608 C   0  0  0  0  0  0  0  0  0  0  0  0
    3.5673    1.3554   -1.9150 C   0  0  0  0  0  0  0  0  0  0  0  0
    4.5632    0.2874   -2.2350 C   0  0  0  0  0  0  0  0  0  0  0  0
    4.2795   -0.7795   -3.0224 N   0  0  0  0  0  0  0  0  0  0  0  0
    5.3388   -1.6251   -3.0928 C   0  0  0  0  0  0  0  0  0  0  0  0
    5.3549   -2.8099   -3.8307 C   0  0  0  0  0  0  0  0  0  0  0  0
    6.5174   -3.6003   -3.8133 C   0  0  0  0  0  0  0  0  0  0  0  0
    7.6414   -3.2010   -3.0625 C   0  0  0  0  0  0  0  0  0  0  0  0
    7.6129   -2.0081   -2.3224 C   0  0  0  0  0  0  0  0  0  0  0  0
    6.4502   -1.2427   -2.3579 C   0  0  0  0  0  0  0  0  0  0  0  0
    6.1234    0.2064   -1.5778 S   0  0  0  0  0  0  0  0  0  0  0  0
    0.5376    1.8920   -1.4385 C   0  0  0  0  0  0  0  0  0  0  0  0
   -0.8477    2.1965   -0.9572 C   0  0  0  0  0  0  0  0  0  0  0  0
   -1.6825    2.7046   -1.7531 O   0  0  0  0  0  0  0  0  0  0  0  0
   -1.2506    1.8484    0.4126 C   0  0  0  0  0  0  0  0  0  0  0  0
   -2.9994    1.9474    0.8662 S   0  0  0  0  0  0  0  0  0  0  0  0
   -3.3405    0.1798    0.6763 C   0  0  0  0  0  0  0  0  0  0  0  0
   -3.1184   -0.3583   -0.5998 C   0  0  0  0  0  0  0  0  0  0  0  0
   -3.1866   -1.7322   -0.8393 C   0  0  0  0  0  0  0  0  0  0  0  0
   -2.8845   -2.2516   -2.2215 C   0  0  0  0  0  0  0  0  0  0  0  0
   -3.4674   -2.5996    0.2322 C   0  0  0  0  0  0  0  0  0  0  0  0
   -3.5135   -4.0999    0.0481 C   0  0  0  0  0  0  0  0  0  0  0  0
   -4.7447   -4.4822   -0.5008 O   0  0  0  0  0  0  0  0  0  0  0  0
   -3.8004   -2.0617    1.4843 C   0  0  0  0  0  0  0  0  0  0  0  0
   -3.8081   -0.6638    1.7349 C   0  0  0  0  0  0  0  0  0  0  0  0
   -4.4204   -0.1093    3.0624 C   0  0  0  0  0  0  0  0  0  0  0  0
   -5.5815    0.8637    2.7459 C   0  0  0  0  0  0  0  0  0  0  0  0
   -5.0303   -1.2232    3.9584 C   0  0  0  0  0  0  0  0  0  0  0  0
   -3.3550    0.6018    3.9220 C   0  0  0  0  0  0  0  0  0  0  0  0
   -0.3115    1.4896    1.2940 C   0  0  0  0  0  0  0  0  0  0  0  0
   -0.6622    1.1458    2.5920 O   0  0  0  0  0  0  0  0  0  0  0  0
    1.0427    1.4434    0.9317 O   0  0  0  0  0  0  0  0  0  0  0  0
    3.5172    4.5343    1.2186 H   0  0  0  0  0  0  0  0  0  0  0  0
    4.1512    2.9660    0.6758 H   0  0  0  0  0  0  0  0  0  0  0  0
    2.8818    3.0222    1.9660 H   0  0  0  0  0  0  0  0  0  0  0  0
    2.5676    3.7937   -1.0072 H   0  0  0  0  0  0  0  0  0  0  0  0
    0.2851    4.5266   -0.5088 H   0  0  0  0  0  0  0  0  0  0  0  0
    1.4522    5.4266    0.4794 H   0  0  0  0  0  0  0  0  0  0  0  0
    0.4983    4.1119    1.2459 H   0  0  0  0  0  0  0  0  0  0  0  0
    3.4552    0.8677    0.2009 H   0  0  0  0  0  0  0  0  0  0  0  0
    2.3346   -0.0455   -0.8108 H   0  0  0  0  0  0  0  0  0  0  0  0
    2.8944    1.4860   -2.7879 H   0  0  0  0  0  0  0  0  0  0  0  0
    4.1164    2.3049   -1.7516 H   0  0  0  0  0  0  0  0  0  0  0  0
    4.4903   -3.1164   -4.4054 H   0  0  0  0  0  0  0  0  0  0  0  0
    6.5489   -4.5220   -4.3796 H   0  0  0  0  0  0  0  0  0  0  0  0
    8.5309   -3.8175   -3.0554 H   0  0  0  0  0  0  0  0  0  0  0  0
    8.4701   -1.6942   -1.7411 H   0  0  0  0  0  0  0  0  0  0  0  0
    0.4942    0.8756   -1.8870 H   0  0  0  0  0  0  0  0  0  0  0  0
    0.8118    2.5980   -2.2527 H   0  0  0  0  0  0  0  0  0  0  0  0
   -2.8539    0.3030   -1.4139 H   0  0  0  0  0  0  0  0  0  0  0  0
   -3.6478   -2.9959   -2.5302 H   0  0  0  0  0  0  0  0  0  0  0  0
   -1.8806   -2.7251   -2.2303 H   0  0  0  0  0  0  0  0  0  0  0  0
   -2.8930   -1.4353   -2.9751 H   0  0  0  0  0  0  0  0  0  0  0  0
   -2.6979   -4.4316   -0.6273 H   0  0  0  0  0  0  0  0  0  0  0  0
   -3.3436   -4.6279    1.0143 H   0  0  0  0  0  0  0  0  0  0  0  0
   -5.4141   -4.4127    0.2294 H   0  0  0  0  0  0  0  0  0  0  0  0
   -4.0718   -2.7696    2.2507 H   0  0  0  0  0  0  0  0  0  0  0  0
   -5.2397    1.7984    2.2674 H   0  0  0  0  0  0  0  0  0  0  0  0
   -6.3191    0.3765    2.0720 H   0  0  0  0  0  0  0  0  0  0  0  0
   -6.1097    1.1681    3.6758 H   0  0  0  0  0  0  0  0  0  0  0  0
   -5.8169   -1.7884    3.4124 H   0  0  0  0  0  0  0  0  0  0  0  0
   -5.5090   -0.7920    4.8649 H   0  0  0  0  0  0  0  0  0  0  0  0
   -4.2453   -1.9241    4.3165 H   0  0  0  0  0  0  0  0  0  0  0  0
   -3.0377    1.5670    3.4904 H   0  0  0  0  0  0  0  0  0  0  0  0
   -2.4692   -0.0552    4.0548 H   0  0  0  0  0  0  0  0  0  0  0  0
   -3.7561    0.8414    4.9310 H   0  0  0  0  0  0  0  0  0  0  0  0
    0.0455    0.8709    3.2619 H   0  0  0  0  0  0  0  0  0  0  0  0
  1  2  1  0
  2  3  1  0
  2  4  1  0
  4  5  1  0
  5  6  1  0
  6  7  1  0
  7  8  2  0
  8  9  1  0
  9 10  2  0
 10 11  1  0
 11 12  2  0
 12 13  1  0
 13 14  2  0
 14 15  1  0
  4 16  1  0
 16 17  1  0
 17 18  2  0
 17 19  1  0
 19 20  1  0
 20 21  1  0
 21 22  2  0
 22 23  1  0
 23 24  1  0
 23 25  2  0
 25 26  1  0
 26 27  1  0
 25 28  1  0
 28 29  2  0
 29 30  1  0
 30 31  1  0
 30 32  1  0
 30 33  1  0
 19 34  2  0
 34 35  1  0
 34 36  1  0
 14  9  1  0
 15  7  1  0
 29 21  1  0
 36  4  1  0
  1 37  1  0
  1 38  1  0
  1 39  1  0
  2 40  1  0
  3 41  1  0
  3 42  1  0
  3 43  1  0
  5 44  1  0
  5 45  1  0
  6 46  1  0
  6 47  1  0
 10 48  1  0
 11 49  1  0
 12 50  1  0
 13 51  1  0
 16 52  1  0
 16 53  1  0
 22 54  1  0
 24 55  1  0
 24 56  1  0
 24 57  1  0
 26 58  1  0
 26 59  1  0
 27 60  1  0
 28 61  1  0
 31 62  1  0
 31 63  1  0
 31 64  1  0
 32 65  1  0
 32 66  1  0
 32 67  1  0
 33 68  1  0
 33 69  1  0
 33 70  1  0
 35 71  1  0
M  END
$$$$
