
     RDKit          3D

 79 80  0  0  0  0  0  0  0  0999 V2000
    8.4689    0.8280   -3.1709 C   0  0  0  0  0  0  0  0  0  0  0  0
    7.6376    2.0925   -3.4495 C   0  0  0  0  0  0  0  0  0  0  0  0
    6.3221    1.7115   -4.1466 C   0  0  0  0  0  0  0  0  0  0  0  0
    7.3762    2.9597   -2.1824 C   0  0  2  0  0  0  0  0  0  0  0  0
    8.6626    3.6047   -1.6417 C   0  0  0  0  0  0  0  0  0  0  0  0
    6.6490    2.1980   -1.0953 C   0  0  0  0  0  0  0  0  0  0  0  0
    7.3034    1.4953   -0.2764 O   0  0  0  0  0  0  0  0  0  0  0  0
    5.2140    2.2480   -1.0269 N   0  0  0  0  0  0  0  0  0  0  0  0
    4.4246    1.4490   -0.1303 C   0  0  0  0  0  0  0  0  0  0  0  0
    4.9762    0.6381    0.6632 O   0  0  0  0  0  0  0  0  0  0  0  0
    2.9185    1.5300   -0.1757 C   0  0  2  0  0  0  0  0  0  0  0  0
    2.4230    1.4724    1.1367 O   0  0  0  0  0  0  0  0  0  0  0  0
    2.3336    0.3655   -1.0212 C   0  0  2  0  0  0  0  0  0  0  0  0
    3.0866    0.1967   -2.1999 O   0  0  0  0  0  0  0  0  0  0  0  0
    0.8320    0.5600   -1.3948 C   0  0  1  0  0  0  0  0  0  0  0  0
    0.4484   -0.4311   -2.3177 O   0  0  0  0  0  0  0  0  0  0  0  0
   -0.1468    0.5236   -0.1990 C   0  0  1  0  0  0  0  0  0  0  0  0
   -1.4710    0.7597   -0.6912 O   0  0  0  0  0  0  0  0  0  0  0  0
   -2.6353    0.8122    0.0936 C   0  0  0  0  0  0  0  0  0  0  0  0
   -2.6002    0.8817    1.4981 C   0  0  0  0  0  0  0  0  0  0  0  0
   -3.7867    0.8494    2.2353 C   0  0  0  0  0  0  0  0  0  0  0  0
   -5.0294    0.7455    1.5869 C   0  0  0  0  0  0  0  0  0  0  0  0
   -6.2755    0.6603    2.3879 C   0  0  0  0  0  0  0  0  0  0  0  0
   -7.3976   -0.0546    1.9299 C   0  0  0  0  0  0  0  0  0  0  0  0
   -8.5421   -0.1228    2.7269 C   0  0  0  0  0  0  0  0  0  0  0  0
   -8.5642    0.5117    3.9689 C   0  0  0  0  0  0  0  0  0  0  0  0
   -7.4323    1.2038    4.4007 C   0  0  0  0  0  0  0  0  0  0  0  0
   -6.3263    1.2592    3.6119 N   0  0  0  0  0  0  0  0  0  0  0  0
   -5.0605    0.7273    0.1802 C   0  0  0  0  0  0  0  0  0  0  0  0
   -3.8728    0.7654   -0.5551 C   0  0  0  0  0  0  0  0  0  0  0  0
   -0.0901   -0.7987    0.5341 C   0  0  0  0  0  0  0  0  0  0  0  0
    0.6832   -0.9232    1.5220 O   0  0  0  0  0  0  0  0  0  0  0  0
   -0.9279   -1.8917    0.1242 N   0  0  0  0  0  0  0  0  0  0  0  0
   -1.3112   -2.9603    1.0032 C   0  0  0  0  0  0  0  0  0  0  0  0
   -0.6702   -3.1687    2.0702 O   0  0  0  0  0  0  0  0  0  0  0  0
   -2.5454   -3.7752    0.6858 C   0  0  1  0  0  0  0  0  0  0  0  0
   -2.4699   -5.1804    1.3106 C   0  0  0  0  0  0  0  0  0  0  0  0
   -3.8322   -2.9822    1.0653 C   0  0  0  0  0  0  0  0  0  0  0  0
   -5.0991   -3.6178    0.4754 C   0  0  0  0  0  0  0  0  0  0  0  0
   -3.9988   -2.7685    2.5790 C   0  0  0  0  0  0  0  0  0  0  0  0
    8.6660    0.2888   -4.1221 H   0  0  0  0  0  0  0  0  0  0  0  0
    7.9309    0.1381   -2.4871 H   0  0  0  0  0  0  0  0  0  0  0  0
    9.4519    1.0886   -2.7289 H   0  0  0  0  0  0  0  0  0  0  0  0
    8.2125    2.7137   -4.1725 H   0  0  0  0  0  0  0  0  0  0  0  0
    5.7219    2.6204   -4.3649 H   0  0  0  0  0  0  0  0  0  0  0  0
    5.7205    1.0262   -3.5123 H   0  0  0  0  0  0  0  0  0  0  0  0
    6.5346    1.2022   -5.1108 H   0  0  0  0  0  0  0  0  0  0  0  0
    6.7288    3.8107   -2.4916 H   0  0  0  0  0  0  0  0  0  0  0  0
    8.4132    4.3121   -0.8220 H   0  0  0  0  0  0  0  0  0  0  0  0
    9.3648    2.8446   -1.2410 H   0  0  0  0  0  0  0  0  0  0  0  0
    9.1738    4.1764   -2.4452 H   0  0  0  0  0  0  0  0  0  0  0  0
    4.7119    2.8727   -1.6973 H   0  0  0  0  0  0  0  0  0  0  0  0
    2.6193    2.4965   -0.6453 H   0  0  0  0  0  0  0  0  0  0  0  0
    2.5773    2.3658    1.5425 H   0  0  0  0  0  0  0  0  0  0  0  0
    2.4404   -0.5749   -0.4394 H   0  0  0  0  0  0  0  0  0  0  0  0
    3.0097    1.0360   -2.7262 H   0  0  0  0  0  0  0  0  0  0  0  0
    0.7218    1.5662   -1.8672 H   0  0  0  0  0  0  0  0  0  0  0  0
    0.6741   -0.0953   -3.2244 H   0  0  0  0  0  0  0  0  0  0  0  0
    0.1001    1.3497    0.4981 H   0  0  0  0  0  0  0  0  0  0  0  0
   -1.6622    0.9446    2.0316 H   0  0  0  0  0  0  0  0  0  0  0  0
   -3.7297    0.8742    3.3165 H   0  0  0  0  0  0  0  0  0  0  0  0
   -7.3857   -0.5768    0.9825 H   0  0  0  0  0  0  0  0  0  0  0  0
   -9.4096   -0.6719    2.3839 H   0  0  0  0  0  0  0  0  0  0  0  0
   -9.4476    0.4639    4.5925 H   0  0  0  0  0  0  0  0  0  0  0  0
   -7.4317    1.6967    5.3637 H   0  0  0  0  0  0  0  0  0  0  0  0
   -5.9996    0.6904   -0.3556 H   0  0  0  0  0  0  0  0  0  0  0  0
   -3.9134    0.7300   -1.6362 H   0  0  0  0  0  0  0  0  0  0  0  0
   -1.4217   -1.8166   -0.7935 H   0  0  0  0  0  0  0  0  0  0  0  0
   -2.5541   -3.9240   -0.4170 H   0  0  0  0  0  0  0  0  0  0  0  0
   -3.3370   -5.7971    0.9980 H   0  0  0  0  0  0  0  0  0  0  0  0
   -1.5500   -5.6962    0.9606 H   0  0  0  0  0  0  0  0  0  0  0  0
   -2.4395   -5.1318    2.4189 H   0  0  0  0  0  0  0  0  0  0  0  0
   -3.7485   -1.9746    0.6025 H   0  0  0  0  0  0  0  0  0  0  0  0
   -4.9768   -3.7850   -0.6159 H   0  0  0  0  0  0  0  0  0  0  0  0
   -5.9656   -2.9378    0.6223 H   0  0  0  0  0  0  0  0  0  0  0  0
   -5.3298   -4.5855    0.9678 H   0  0  0  0  0  0  0  0  0  0  0  0
   -4.8672   -2.1034    2.7725 H   0  0  0  0  0  0  0  0  0  0  0  0
   -3.0992   -2.2808    3.0081 H   0  0  0  0  0  0  0  0  0  0  0  0
   -4.1791   -3.7306    3.1023 H   0  0  0  0  0  0  0  0  0  0  0  0
  1  2  1  0
  2  3  1  0
  2  4  1  0
  4  5  1  0
  4  6  1  0
  6  7  2  0
  6  8  1  0
  8  9  1  0
  9 10  2  0
  9 11  1  0
 11 12  1  0
 11 13  1  0
 13 14  1  0
 13 15  1  0
 15 16  1  0
 15 17  1  0
 17 18  1  0
 18 19  1  0
 19 20  2  0
 20 21  1  0
 21 22  2  0
 22 23  1  0
 23 24  2  0
 24 25  1  0
 25 26  2  0
 26 27  1  0
 27 28  2  0
 22 29  1  0
 29 30  2  0
 17 31  1  0
 31 32  2  0
 31 33  1  0
 33 34  1  0
 34 35  2  0
 34 36  1  0
 36 37  1  0
 36 38  1  0
 38 39  1  0
 38 40  1  0
 28 23  1  0
 30 19  1  0
  1 41  1  0
  1 42  1  0
  1 43  1  0
  2 44  1  0
  3 45  1  0
  3 46  1  0
  3 47  1  0
  4 48  1  6
  5 49  1  0
  5 50  1  0
  5 51  1  0
  8 52  1  0
 11 53  1  6
 12 54  1  0
 13 55  1  1
 14 56  1  0
 15 57  1  6
 16 58  1  0
 17 59  1  1
 20 60  1  0
 21 61  1  0
 24 62  1  0
 25 63  1  0
 26 64  1  0
 27 65  1  0
 29 66  1  0
 30 67  1  0
 33 68  1  0
 36 69  1  6
 37 70  1  0
 37 71  1  0
 37 72  1  0
 38 73  1  0
 39 74  1  0
 39 75  1  0
 39 76  1  0
 40 77  1  0
 40 78  1  0
 40 79  1  0
M  END
$$$$
