
     RDKit          3D

 77 80  0  0  0  0  0  0  0  0999 V2000
    4.3217    2.3985   -2.3423 C   0  0  0  0  0  0  0  0  0  0  0  0
    5.4782    1.4332   -2.4575 C   0  0  0  0  0  0  0  0  0  0  0  0
    6.6900    1.8738   -3.0328 C   0  0  0  0  0  0  0  0  0  0  0  0
    6.8321    3.1993   -3.4452 O   0  0  0  0  0  0  0  0  0  0  0  0
    7.7567    0.9809   -3.1961 C   0  0  0  0  0  0  0  0  0  0  0  0
    7.6335   -0.3455   -2.7887 C   0  0  0  0  0  0  0  0  0  0  0  0
    6.4533   -0.7878   -2.1933 C   0  0  0  0  0  0  0  0  0  0  0  0
    5.3772    0.0930   -1.9963 C   0  0  0  0  0  0  0  0  0  0  0  0
    4.1703   -0.4190   -1.3117 C   0  0  0  0  0  0  0  0  0  0  0  0
    3.6993   -1.5407   -1.6443 O   0  0  0  0  0  0  0  0  0  0  0  0
    3.5675    0.3282   -0.2448 N   0  0  0  0  0  0  0  0  0  0  0  0
    2.2627   -0.0157    0.3286 C   0  0  2  0  0  0  0  0  0  0  0  0
    1.4820    1.3047    0.5636 C   0  0  0  0  0  0  0  0  0  0  0  0
    0.0160    1.1976    1.0508 C   0  0  2  0  0  0  0  0  0  0  0  0
    0.0166    0.8298    2.4060 O   0  0  0  0  0  0  0  0  0  0  0  0
   -0.8784    0.2253    0.2300 C   0  0  2  0  0  0  0  0  0  0  0  0
   -1.0498    0.6375   -1.2513 C   0  0  0  0  0  0  0  0  0  0  0  0
   -1.8413    1.9115   -1.4315 C   0  0  0  0  0  0  0  0  0  0  0  0
   -3.2470    1.8765   -1.4411 C   0  0  0  0  0  0  0  0  0  0  0  0
   -3.9814    3.0567   -1.5896 C   0  0  0  0  0  0  0  0  0  0  0  0
   -3.3206    4.2792   -1.7341 C   0  0  0  0  0  0  0  0  0  0  0  0
   -1.9240    4.3230   -1.7330 C   0  0  0  0  0  0  0  0  0  0  0  0
   -1.1854    3.1452   -1.5841 C   0  0  0  0  0  0  0  0  0  0  0  0
   -2.1908    0.0834    0.8692 N   0  0  0  0  0  0  0  0  0  0  0  0
   -2.9547   -1.1297    0.7956 C   0  0  0  0  0  0  0  0  0  0  0  0
   -2.5524   -2.0898    0.0833 O   0  0  0  0  0  0  0  0  0  0  0  0
   -4.1987   -1.2723    1.5819 C   0  0  0  0  0  0  0  0  0  0  0  0
   -4.1778   -0.8677    2.9265 C   0  0  0  0  0  0  0  0  0  0  0  0
   -5.2952   -1.0445    3.7386 C   0  0  0  0  0  0  0  0  0  0  0  0
   -6.4419   -1.6459    3.2273 C   0  0  0  0  0  0  0  0  0  0  0  0
   -6.4949   -2.0577    1.8924 C   0  0  0  0  0  0  0  0  0  0  0  0
   -7.6594   -2.6935    1.4542 O   0  0  0  0  0  0  0  0  0  0  0  0
   -5.3863   -1.8327    1.0365 C   0  0  0  0  0  0  0  0  0  0  0  0
   -5.4868   -2.1772   -0.4318 C   0  0  0  0  0  0  0  0  0  0  0  0
    2.4924   -0.8523    1.6177 C   0  0  0  0  0  0  0  0  0  0  0  0
    1.4472   -1.9238    1.8371 C   0  0  0  0  0  0  0  0  0  0  0  0
    1.2628   -2.9433    0.8848 C   0  0  0  0  0  0  0  0  0  0  0  0
    0.2825   -3.9215    1.0766 C   0  0  0  0  0  0  0  0  0  0  0  0
   -0.5058   -3.9066    2.2296 C   0  0  0  0  0  0  0  0  0  0  0  0
   -0.3012   -2.9254    3.2021 C   0  0  0  0  0  0  0  0  0  0  0  0
    0.6813   -1.9482    3.0165 C   0  0  0  0  0  0  0  0  0  0  0  0
    4.3505    3.1581   -3.1512 H   0  0  0  0  0  0  0  0  0  0  0  0
    3.3492    1.8728   -2.4415 H   0  0  0  0  0  0  0  0  0  0  0  0
    4.3648    2.9201   -1.3639 H   0  0  0  0  0  0  0  0  0  0  0  0
    7.6916    3.5379   -3.8616 H   0  0  0  0  0  0  0  0  0  0  0  0
    8.6836    1.3155   -3.6445 H   0  0  0  0  0  0  0  0  0  0  0  0
    8.4604   -1.0309   -2.9234 H   0  0  0  0  0  0  0  0  0  0  0  0
    6.3877   -1.8174   -1.8623 H   0  0  0  0  0  0  0  0  0  0  0  0
    4.1360    1.0721    0.2206 H   0  0  0  0  0  0  0  0  0  0  0  0
    1.7085   -0.6083   -0.4272 H   0  0  0  0  0  0  0  0  0  0  0  0
    2.0439    1.9301    1.2921 H   0  0  0  0  0  0  0  0  0  0  0  0
    1.4905    1.8778   -0.3875 H   0  0  0  0  0  0  0  0  0  0  0  0
   -0.4158    2.2226    0.9623 H   0  0  0  0  0  0  0  0  0  0  0  0
   -0.7603    1.2706    2.8392 H   0  0  0  0  0  0  0  0  0  0  0  0
   -0.3962   -0.7693    0.2390 H   0  0  0  0  0  0  0  0  0  0  0  0
   -0.0572    0.7306   -1.7404 H   0  0  0  0  0  0  0  0  0  0  0  0
   -1.5689   -0.1850   -1.7903 H   0  0  0  0  0  0  0  0  0  0  0  0
   -3.7735    0.9366   -1.3318 H   0  0  0  0  0  0  0  0  0  0  0  0
   -5.0632    3.0232   -1.5928 H   0  0  0  0  0  0  0  0  0  0  0  0
   -3.8906    5.1921   -1.8491 H   0  0  0  0  0  0  0  0  0  0  0  0
   -1.4132    5.2702   -1.8481 H   0  0  0  0  0  0  0  0  0  0  0  0
   -0.1049    3.1972   -1.5894 H   0  0  0  0  0  0  0  0  0  0  0  0
   -2.6273    0.9204    1.3188 H   0  0  0  0  0  0  0  0  0  0  0  0
   -3.2820   -0.4369    3.3578 H   0  0  0  0  0  0  0  0  0  0  0  0
   -5.2638   -0.7354    4.7755 H   0  0  0  0  0  0  0  0  0  0  0  0
   -7.2947   -1.8039    3.8755 H   0  0  0  0  0  0  0  0  0  0  0  0
   -7.7558   -3.1130    0.5390 H   0  0  0  0  0  0  0  0  0  0  0  0
   -5.3226   -3.2657   -0.5735 H   0  0  0  0  0  0  0  0  0  0  0  0
   -6.4817   -1.8937   -0.8327 H   0  0  0  0  0  0  0  0  0  0  0  0
   -4.7558   -1.6124   -1.0447 H   0  0  0  0  0  0  0  0  0  0  0  0
    3.4724   -1.3742    1.5512 H   0  0  0  0  0  0  0  0  0  0  0  0
    2.5678   -0.1790    2.4992 H   0  0  0  0  0  0  0  0  0  0  0  0
    1.8693   -2.9744   -0.0112 H   0  0  0  0  0  0  0  0  0  0  0  0
    0.1337   -4.6912    0.3304 H   0  0  0  0  0  0  0  0  0  0  0  0
   -1.2676   -4.6616    2.3743 H   0  0  0  0  0  0  0  0  0  0  0  0
   -0.9019   -2.9238    4.1024 H   0  0  0  0  0  0  0  0  0  0  0  0
    0.8371   -1.2078    3.7906 H   0  0  0  0  0  0  0  0  0  0  0  0
  1  2  1  0
  2  3  2  0
  3  4  1  0
  3  5  1  0
  5  6  2  0
  6  7  1  0
  7  8  2  0
  8  9  1  0
  9 10  2  0
  9 11  1  0
 11 12  1  0
 12 13  1  0
 13 14  1  0
 14 15  1  0
 14 16  1  0
 16 17  1  0
 17 18  1  0
 18 19  2  0
 19 20  1  0
 20 21  2  0
 21 22  1  0
 22 23  2  0
 16 24  1  0
 24 25  1  0
 25 26  2  0
 25 27  1  0
 27 28  2  0
 28 29  1  0
 29 30  2  0
 30 31  1  0
 31 32  1  0
 31 33  2  0
 33 34  1  0
 12 35  1  0
 35 36  1  0
 36 37  2  0
 37 38  1  0
 38 39  2  0
 39 40  1  0
 40 41  2  0
  8  2  1  0
 23 18  1  0
 33 27  1  0
 41 36  1  0
  1 42  1  0
  1 43  1  0
  1 44  1  0
  4 45  1  0
  5 46  1  0
  6 47  1  0
  7 48  1  0
 11 49  1  0
 12 50  1  6
 13 51  1  0
 13 52  1  0
 14 53  1  1
 15 54  1  0
 16 55  1  6
 17 56  1  0
 17 57  1  0
 19 58  1  0
 20 59  1  0
 21 60  1  0
 22 61  1  0
 23 62  1  0
 24 63  1  0
 28 64  1  0
 29 65  1  0
 30 66  1  0
 32 67  1  0
 34 68  1  0
 34 69  1  0
 34 70  1  0
 35 71  1  0
 35 72  1  0
 37 73  1  0
 38 74  1  0
 39 75  1  0
 40 76  1  0
 41 77  1  0
M  END
$$$$
