
     RDKit          3D

 69 74  0  0  0  0  0  0  0  0999 V2000
   -2.3104   -2.7601    2.5999 O   0  0  0  0  0  0  0  0  0  0  0  0
   -2.6930   -2.0968    1.4368 C   0  0  0  0  0  0  0  0  0  0  0  0
   -3.9300   -1.6252    1.3478 O   0  0  0  0  0  0  0  0  0  0  0  0
   -4.3919   -0.9549    0.2979 C   0  0  0  0  0  0  0  0  0  0  0  0
   -5.8383   -0.5102    0.3550 C   0  0  0  0  0  0  0  0  0  0  0  0
   -6.1431    0.9818    0.0825 C   0  0  0  0  0  0  0  0  0  0  0  0
   -5.1135    2.0000    0.6022 C   0  0  0  0  0  0  0  0  0  0  0  0
   -3.7545    2.0627   -0.1341 C   0  0  0  0  0  0  0  0  0  0  0  0
   -3.7604    1.6761   -1.6339 C   0  0  0  0  0  0  0  0  0  0  0  0
   -3.9748    0.1737   -1.9488 C   0  0  0  0  0  0  0  0  0  0  0  0
   -3.5455   -0.7263   -0.8118 C   0  0  0  0  0  0  0  0  0  0  0  0
   -2.2198   -1.1946   -0.7466 C   0  0  0  0  0  0  0  0  0  0  0  0
   -1.4239   -0.9371   -1.6911 O   0  0  0  0  0  0  0  0  0  0  0  0
   -1.7783   -1.9207    0.3822 C   0  0  0  0  0  0  0  0  0  0  0  0
   -0.3348   -2.3980    0.5545 C   0  0  0  0  0  0  0  0  0  0  0  0
    0.2951   -2.8950   -0.7786 C   0  0  0  0  0  0  0  0  0  0  0  0
    1.6148   -3.6413   -0.6108 C   0  0  0  0  0  0  0  0  0  0  0  0
    1.5971   -2.2898   -1.3010 C   0  0  0  0  0  0  0  0  0  0  0  0
    0.4822   -1.3608    1.3159 C   0  0  0  0  0  0  0  0  0  0  0  0
    1.2837   -1.7614    2.3998 C   0  0  0  0  0  0  0  0  0  0  0  0
    2.0731   -0.8322    3.0801 C   0  0  0  0  0  0  0  0  0  0  0  0
    2.0763    0.5069    2.6882 C   0  0  0  0  0  0  0  0  0  0  0  0
    1.2824    0.9290    1.6116 C   0  0  0  0  0  0  0  0  0  0  0  0
    1.2955    2.2948    1.1762 N   0  0  0  0  0  0  0  0  0  0  0  0
    2.7766    3.1886    1.0650 S   0  0  0  0  0  0  0  0  0  0  0  0
    2.6206    4.3072    0.0736 O   0  0  0  0  0  0  0  0  0  0  0  0
    3.0949    3.7780    2.4108 O   0  0  0  0  0  0  0  0  0  0  0  0
    4.0722    2.1069    0.5192 C   0  0  0  0  0  0  0  0  0  0  0  0
    5.1982    1.9469    1.3420 C   0  0  0  0  0  0  0  0  0  0  0  0
    6.2179    1.0626    0.9937 C   0  0  0  0  0  0  0  0  0  0  0  0
    6.1324    0.3178   -0.1801 C   0  0  0  0  0  0  0  0  0  0  0  0
    5.0235    0.4566   -1.0252 C   0  0  0  0  0  0  0  0  0  0  0  0
    4.9449   -0.2998   -2.2052 C   0  0  0  0  0  0  0  0  0  0  0  0
    3.8471   -0.1662   -3.0549 C   0  0  0  0  0  0  0  0  0  0  0  0
    2.8200    0.7208   -2.7367 C   0  0  0  0  0  0  0  0  0  0  0  0
    2.8811    1.4801   -1.5661 C   0  0  0  0  0  0  0  0  0  0  0  0
    3.9794    1.3606   -0.6866 C   0  0  0  0  0  0  0  0  0  0  0  0
    0.4844   -0.0035    0.9364 C   0  0  0  0  0  0  0  0  0  0  0  0
   -2.9632   -2.8841    3.3641 H   0  0  0  0  0  0  0  0  0  0  0  0
   -6.2312   -0.7532    1.3670 H   0  0  0  0  0  0  0  0  0  0  0  0
   -6.4230   -1.1287   -0.3589 H   0  0  0  0  0  0  0  0  0  0  0  0
   -7.1082    1.2087    0.5870 H   0  0  0  0  0  0  0  0  0  0  0  0
   -6.3595    1.1645   -0.9879 H   0  0  0  0  0  0  0  0  0  0  0  0
   -5.5837    3.0053    0.5271 H   0  0  0  0  0  0  0  0  0  0  0  0
   -4.9327    1.8161    1.6836 H   0  0  0  0  0  0  0  0  0  0  0  0
   -2.9988    1.4639    0.4175 H   0  0  0  0  0  0  0  0  0  0  0  0
   -3.3844    3.1089   -0.0611 H   0  0  0  0  0  0  0  0  0  0  0  0
   -4.5202    2.2817   -2.1732 H   0  0  0  0  0  0  0  0  0  0  0  0
   -2.7708    1.9683   -2.0491 H   0  0  0  0  0  0  0  0  0  0  0  0
   -5.0273   -0.0353   -2.2230 H   0  0  0  0  0  0  0  0  0  0  0  0
   -3.4134   -0.0789   -2.8744 H   0  0  0  0  0  0  0  0  0  0  0  0
   -0.3856   -3.3181    1.1782 H   0  0  0  0  0  0  0  0  0  0  0  0
   -0.3601   -3.3980   -1.5227 H   0  0  0  0  0  0  0  0  0  0  0  0
    2.0799   -3.6194    0.3968 H   0  0  0  0  0  0  0  0  0  0  0  0
    1.7619   -4.4935   -1.3079 H   0  0  0  0  0  0  0  0  0  0  0  0
    2.1008   -1.5008   -0.7079 H   0  0  0  0  0  0  0  0  0  0  0  0
    1.7277   -2.3577   -2.4013 H   0  0  0  0  0  0  0  0  0  0  0  0
    1.3048   -2.7969    2.7158 H   0  0  0  0  0  0  0  0  0  0  0  0
    2.6878   -1.1523    3.9115 H   0  0  0  0  0  0  0  0  0  0  0  0
    2.6930    1.2124    3.2287 H   0  0  0  0  0  0  0  0  0  0  0  0
    0.4701    2.6693    0.6567 H   0  0  0  0  0  0  0  0  0  0  0  0
    5.2875    2.5002    2.2674 H   0  0  0  0  0  0  0  0  0  0  0  0
    7.0773    0.9490    1.6420 H   0  0  0  0  0  0  0  0  0  0  0  0
    6.9344   -0.3675   -0.4279 H   0  0  0  0  0  0  0  0  0  0  0  0
    5.7332   -0.9946   -2.4701 H   0  0  0  0  0  0  0  0  0  0  0  0
    3.7911   -0.7538   -3.9621 H   0  0  0  0  0  0  0  0  0  0  0  0
    1.9697    0.8192   -3.3993 H   0  0  0  0  0  0  0  0  0  0  0  0
    2.0639    2.1571   -1.3685 H   0  0  0  0  0  0  0  0  0  0  0  0
   -0.1021    0.3313    0.0938 H   0  0  0  0  0  0  0  0  0  0  0  0
  1  2  1  0
  2  3  1  0
  3  4  1  0
  4  5  1  0
  5  6  1  0
  6  7  1  0
  7  8  1  0
  8  9  1  0
  9 10  1  0
 10 11  1  0
 11 12  1  0
 12 13  2  0
 12 14  1  0
 14 15  1  0
 15 16  1  0
 16 17  1  0
 17 18  1  0
 15 19  1  0
 19 20  2  0
 20 21  1  0
 21 22  2  0
 22 23  1  0
 23 24  1  0
 24 25  1  0
 25 26  2  0
 25 27  2  0
 25 28  1  0
 28 29  2  0
 29 30  1  0
 30 31  2  0
 31 32  1  0
 32 33  2  0
 33 34  1  0
 34 35  2  0
 35 36  1  0
 36 37  2  0
 23 38  2  0
 11  4  2  0
 14  2  2  0
 18 16  1  0
 37 28  1  0
 37 32  1  0
 38 19  1  0
  1 39  1  0
  5 40  1  0
  5 41  1  0
  6 42  1  0
  6 43  1  0
  7 44  1  0
  7 45  1  0
  8 46  1  0
  8 47  1  0
  9 48  1  0
  9 49  1  0
 10 50  1  0
 10 51  1  0
 15 52  1  0
 16 53  1  0
 17 54  1  0
 17 55  1  0
 18 56  1  0
 18 57  1  0
 20 58  1  0
 21 59  1  0
 22 60  1  0
 24 61  1  0
 29 62  1  0
 30 63  1  0
 31 64  1  0
 33 65  1  0
 34 66  1  0
 35 67  1  0
 36 68  1  0
 38 69  1  0
M  END
$$$$
