
     RDKit          3D

 73 74  0  0  0  0  0  0  0  0999 V2000
   -3.9502   -2.9554    4.2124 C   0  0  0  0  0  0  0  0  0  0  0  0
   -3.8335   -3.2583    2.7546 C   0  0  0  0  0  0  0  0  0  0  0  0
   -3.1445   -4.2444    2.3763 O   0  0  0  0  0  0  0  0  0  0  0  0
   -4.4749   -2.4083    1.7934 N   0  0  0  0  0  0  0  0  0  0  0  0
   -4.3218   -2.6093    0.3487 C   0  0  1  0  0  0  0  0  0  0  0  0
   -5.3142   -1.7208   -0.4244 C   0  0  0  0  0  0  0  0  0  0  0  0
   -5.2890   -2.0140   -1.8971 C   0  0  0  0  0  0  0  0  0  0  0  0
   -4.4531   -1.2567   -2.7723 N   0  0  0  0  0  0  0  0  0  0  0  0
   -5.9822   -2.9593   -2.3587 O   0  0  0  0  0  0  0  0  0  0  0  0
   -2.9026   -2.3058   -0.0565 C   0  0  0  0  0  0  0  0  0  0  0  0
   -2.2694   -3.1377   -0.7619 O   0  0  0  0  0  0  0  0  0  0  0  0
   -2.2818   -1.0749    0.3441 N   0  0  0  0  0  0  0  0  0  0  0  0
   -0.8614   -0.8003    0.1046 C   0  0  1  0  0  0  0  0  0  0  0  0
   -0.6203    0.7196    0.0429 C   0  0  0  0  0  0  0  0  0  0  0  0
   -1.6389    1.4793   -1.2716 S   0  0  0  0  0  0  0  0  0  0  0  0
   -0.7667    3.0457   -1.2221 C   0  0  0  0  0  0  0  0  0  0  0  0
    0.2429    3.3111   -2.1556 C   0  0  0  0  0  0  0  0  0  0  0  0
    0.9408    4.5221   -2.1076 C   0  0  0  0  0  0  0  0  0  0  0  0
    0.6274    5.4716   -1.1300 C   0  0  0  0  0  0  0  0  0  0  0  0
   -0.3889    5.2134   -0.2044 C   0  0  0  0  0  0  0  0  0  0  0  0
   -1.0892    4.0036   -0.2524 C   0  0  0  0  0  0  0  0  0  0  0  0
   -0.0157   -1.5177    1.1941 C   0  0  2  0  0  0  0  0  0  0  0  0
   -0.3865   -1.0888    2.4824 O   0  0  0  0  0  0  0  0  0  0  0  0
    1.5185   -1.4098    0.9988 C   0  0  0  0  0  0  0  0  0  0  0  0
    1.9861   -1.9368   -0.3475 C   0  0  0  0  0  0  0  0  0  0  0  0
    1.7551   -3.2931   -0.6483 C   0  0  0  0  0  0  0  0  0  0  0  0
    2.0668   -3.8104   -1.9059 C   0  0  0  0  0  0  0  0  0  0  0  0
    2.6204   -2.9861   -2.8826 C   0  0  0  0  0  0  0  0  0  0  0  0
    2.8903   -1.6479   -2.5966 C   0  0  0  0  0  0  0  0  0  0  0  0
    2.6053   -1.1130   -1.3285 C   0  0  0  0  0  0  0  0  0  0  0  0
    2.9953    0.2894   -1.0709 C   0  0  0  0  0  0  0  0  0  0  0  0
    2.6543    1.1782   -1.8957 O   0  0  0  0  0  0  0  0  0  0  0  0
    3.8162    0.6199    0.0647 N   0  0  0  0  0  0  0  0  0  0  0  0
    4.0687    1.9891    0.5562 C   0  0  0  0  0  0  0  0  0  0  0  0
    4.8495    2.8003   -0.4963 C   0  0  0  0  0  0  0  0  0  0  0  0
    2.7375    2.6901    0.8898 C   0  0  0  0  0  0  0  0  0  0  0  0
    4.9155    1.9112    1.8427 C   0  0  0  0  0  0  0  0  0  0  0  0
   -3.3637   -2.0428    4.4470 H   0  0  0  0  0  0  0  0  0  0  0  0
   -3.5633   -3.8014    4.8193 H   0  0  0  0  0  0  0  0  0  0  0  0
   -5.0149   -2.7841    4.4756 H   0  0  0  0  0  0  0  0  0  0  0  0
   -5.0475   -1.6074    2.1465 H   0  0  0  0  0  0  0  0  0  0  0  0
   -4.5565   -3.6729    0.1161 H   0  0  0  0  0  0  0  0  0  0  0  0
   -5.0877   -0.6460   -0.2512 H   0  0  0  0  0  0  0  0  0  0  0  0
   -6.3424   -1.9064   -0.0438 H   0  0  0  0  0  0  0  0  0  0  0  0
   -3.8566   -0.4835   -2.4033 H   0  0  0  0  0  0  0  0  0  0  0  0
   -4.4248   -1.4742   -3.7930 H   0  0  0  0  0  0  0  0  0  0  0  0
   -2.8389   -0.3966    0.9122 H   0  0  0  0  0  0  0  0  0  0  0  0
   -0.5821   -1.2113   -0.8909 H   0  0  0  0  0  0  0  0  0  0  0  0
   -0.8804    1.1992    1.0095 H   0  0  0  0  0  0  0  0  0  0  0  0
    0.4453    0.9175   -0.1782 H   0  0  0  0  0  0  0  0  0  0  0  0
    0.4904    2.5791   -2.9135 H   0  0  0  0  0  0  0  0  0  0  0  0
    1.7267    4.7222   -2.8243 H   0  0  0  0  0  0  0  0  0  0  0  0
    1.1704    6.4069   -1.0906 H   0  0  0  0  0  0  0  0  0  0  0  0
   -0.6324    5.9495    0.5507 H   0  0  0  0  0  0  0  0  0  0  0  0
   -1.8711    3.8067    0.4699 H   0  0  0  0  0  0  0  0  0  0  0  0
   -0.2743   -2.5966    1.1432 H   0  0  0  0  0  0  0  0  0  0  0  0
   -0.0025   -0.1862    2.6301 H   0  0  0  0  0  0  0  0  0  0  0  0
    2.0178   -2.0051    1.7937 H   0  0  0  0  0  0  0  0  0  0  0  0
    1.8225   -0.3627    1.1703 H   0  0  0  0  0  0  0  0  0  0  0  0
    1.3173   -3.9532    0.0897 H   0  0  0  0  0  0  0  0  0  0  0  0
    1.8711   -4.8520   -2.1257 H   0  0  0  0  0  0  0  0  0  0  0  0
    2.8556   -3.3886   -3.8595 H   0  0  0  0  0  0  0  0  0  0  0  0
    3.3488   -1.0320   -3.3612 H   0  0  0  0  0  0  0  0  0  0  0  0
    4.2267   -0.1846    0.5928 H   0  0  0  0  0  0  0  0  0  0  0  0
    5.7607    2.2470   -0.8097 H   0  0  0  0  0  0  0  0  0  0  0  0
    4.2342    3.0028   -1.3962 H   0  0  0  0  0  0  0  0  0  0  0  0
    5.1597    3.7834   -0.0807 H   0  0  0  0  0  0  0  0  0  0  0  0
    2.9218    3.6976    1.3212 H   0  0  0  0  0  0  0  0  0  0  0  0
    2.1167    2.8217   -0.0171 H   0  0  0  0  0  0  0  0  0  0  0  0
    2.1573    2.0927    1.6251 H   0  0  0  0  0  0  0  0  0  0  0  0
    5.1184    2.9263    2.2481 H   0  0  0  0  0  0  0  0  0  0  0  0
    5.8887    1.4151    1.6372 H   0  0  0  0  0  0  0  0  0  0  0  0
    4.3833    1.3235    2.6219 H   0  0  0  0  0  0  0  0  0  0  0  0
  1  2  1  0
  2  3  2  0
  2  4  1  0
  4  5  1  0
  5  6  1  0
  6  7  1  0
  7  8  1  0
  7  9  2  0
  5 10  1  0
 10 11  2  0
 10 12  1  0
 12 13  1  0
 13 14  1  0
 14 15  1  0
 15 16  1  0
 16 17  2  0
 17 18  1  0
 18 19  2  0
 19 20  1  0
 20 21  2  0
 13 22  1  0
 22 23  1  0
 22 24  1  0
 24 25  1  0
 25 26  2  0
 26 27  1  0
 27 28  2  0
 28 29  1  0
 29 30  2  0
 30 31  1  0
 31 32  2  0
 31 33  1  0
 33 34  1  0
 34 35  1  0
 34 36  1  0
 34 37  1  0
 21 16  1  0
 30 25  1  0
  1 38  1  0
  1 39  1  0
  1 40  1  0
  4 41  1  0
  5 42  1  1
  6 43  1  0
  6 44  1  0
  8 45  1  0
  8 46  1  0
 12 47  1  0
 13 48  1  6
 14 49  1  0
 14 50  1  0
 17 51  1  0
 18 52  1  0
 19 53  1  0
 20 54  1  0
 21 55  1  0
 22 56  1  1
 23 57  1  0
 24 58  1  0
 24 59  1  0
 26 60  1  0
 27 61  1  0
 28 62  1  0
 29 63  1  0
 33 64  1  0
 35 65  1  0
 35 66  1  0
 35 67  1  0
 36 68  1  0
 36 69  1  0
 36 70  1  0
 37 71  1  0
 37 72  1  0
 37 73  1  0
M  END
$$$$
