
     RDKit          3D

 86 88  0  0  0  0  0  0  0  0999 V2000
    6.5933   -1.8360    2.4912 C   0  0  0  0  0  0  0  0  0  0  0  0
    6.1772   -1.7778    1.0136 C   0  0  0  0  0  0  0  0  0  0  0  0
    6.8757   -0.5997    0.3220 C   0  0  0  0  0  0  0  0  0  0  0  0
    4.6459   -1.6545    0.8508 C   0  0  0  0  0  0  0  0  0  0  0  0
    3.8937   -2.9196    1.3220 C   0  0  0  0  0  0  0  0  0  0  0  0
    2.4627   -2.9309    0.9527 N   0  0  0  0  0  0  0  0  0  0  0  0
    1.7164   -1.7584    1.4470 C   0  0  0  0  0  0  0  0  0  0  0  0
    0.2429   -2.1294    1.7184 C   0  0  1  0  0  0  0  0  0  0  0  0
    0.1844   -3.1647    2.6698 O   0  0  0  0  0  0  0  0  0  0  0  0
   -0.5860   -0.8960    2.1757 C   0  0  2  0  0  0  0  0  0  0  0  0
   -2.0393   -1.2742    2.5785 C   0  0  0  0  0  0  0  0  0  0  0  0
   -3.0172   -1.2142    1.4301 C   0  0  0  0  0  0  0  0  0  0  0  0
   -3.0526   -2.2248    0.4571 C   0  0  0  0  0  0  0  0  0  0  0  0
   -3.8742   -2.0915   -0.6666 C   0  0  0  0  0  0  0  0  0  0  0  0
   -4.6697   -0.9516   -0.8347 C   0  0  0  0  0  0  0  0  0  0  0  0
   -5.3836   -0.8066   -2.0354 O   0  0  0  0  0  0  0  0  0  0  0  0
   -5.8597    0.4299   -2.5782 C   0  0  0  0  0  0  0  0  0  0  0  0
   -4.7765    1.1505   -3.4026 C   0  0  0  0  0  0  0  0  0  0  0  0
   -3.5330    1.5864   -2.6070 C   0  0  0  0  0  0  0  0  0  0  0  0
   -3.7839    2.7952   -1.6853 C   0  0  0  0  0  0  0  0  0  0  0  0
   -2.8283    2.8320   -0.5205 C   0  0  0  0  0  0  0  0  0  0  0  0
   -3.2695    3.1355    0.6204 O   0  0  0  0  0  0  0  0  0  0  0  0
   -1.4262    2.5707   -0.7080 N   0  0  0  0  0  0  0  0  0  0  0  0
   -0.4307    2.5671    0.3727 C   0  0  1  0  0  0  0  0  0  0  0  0
   -0.2133    3.9934    0.9581 C   0  0  0  0  0  0  0  0  0  0  0  0
    0.9831    4.0193    1.9254 C   0  0  0  0  0  0  0  0  0  0  0  0
    0.0201    5.0244   -0.1585 C   0  0  0  0  0  0  0  0  0  0  0  0
   -0.7958    1.5307    1.4147 C   0  0  0  0  0  0  0  0  0  0  0  0
   -1.3201    1.8760    2.5090 O   0  0  0  0  0  0  0  0  0  0  0  0
   -0.5773    0.1427    1.1328 N   0  0  0  0  0  0  0  0  0  0  0  0
   -4.7023    0.0147    0.1872 C   0  0  0  0  0  0  0  0  0  0  0  0
   -3.8709   -0.1094    1.2996 C   0  0  0  0  0  0  0  0  0  0  0  0
    2.1883   -3.2927   -0.7482 S   0  0  0  0  0  0  0  0  0  0  0  0
    1.4175   -4.5809   -0.8217 O   0  0  0  0  0  0  0  0  0  0  0  0
    3.4918   -3.5036   -1.4691 O   0  0  0  0  0  0  0  0  0  0  0  0
    1.2781   -2.0450   -1.6154 C   0  0  0  0  0  0  0  0  0  0  0  0
   -0.0765   -2.2415   -1.9336 C   0  0  0  0  0  0  0  0  0  0  0  0
   -0.7837   -1.2636   -2.6396 C   0  0  0  0  0  0  0  0  0  0  0  0
   -0.1424   -0.0889   -3.0393 C   0  0  0  0  0  0  0  0  0  0  0  0
    1.2038    0.1136   -2.7277 C   0  0  0  0  0  0  0  0  0  0  0  0
    1.9149   -0.8636   -2.0257 C   0  0  0  0  0  0  0  0  0  0  0  0
    7.7008   -1.8484    2.5785 H   0  0  0  0  0  0  0  0  0  0  0  0
    6.2019   -0.9556    3.0448 H   0  0  0  0  0  0  0  0  0  0  0  0
    6.2147   -2.7633    2.9684 H   0  0  0  0  0  0  0  0  0  0  0  0
    6.5200   -2.7114    0.5147 H   0  0  0  0  0  0  0  0  0  0  0  0
    7.9787   -0.7017    0.4073 H   0  0  0  0  0  0  0  0  0  0  0  0
    6.5671    0.3637    0.7823 H   0  0  0  0  0  0  0  0  0  0  0  0
    6.6177   -0.5799   -0.7585 H   0  0  0  0  0  0  0  0  0  0  0  0
    4.2863   -0.7662    1.4139 H   0  0  0  0  0  0  0  0  0  0  0  0
    4.4232   -1.4808   -0.2192 H   0  0  0  0  0  0  0  0  0  0  0  0
    3.9673   -2.9968    2.4275 H   0  0  0  0  0  0  0  0  0  0  0  0
    4.3861   -3.8303    0.9174 H   0  0  0  0  0  0  0  0  0  0  0  0
    1.8033   -0.9126    0.7359 H   0  0  0  0  0  0  0  0  0  0  0  0
    2.1518   -1.4024    2.4080 H   0  0  0  0  0  0  0  0  0  0  0  0
   -0.1990   -2.5149    0.7818 H   0  0  0  0  0  0  0  0  0  0  0  0
    0.5466   -2.8094    3.5235 H   0  0  0  0  0  0  0  0  0  0  0  0
   -0.0825   -0.4887    3.0817 H   0  0  0  0  0  0  0  0  0  0  0  0
   -2.3699   -0.5762    3.3788 H   0  0  0  0  0  0  0  0  0  0  0  0
   -2.0830   -2.2831    3.0398 H   0  0  0  0  0  0  0  0  0  0  0  0
   -2.4308   -3.1046    0.5546 H   0  0  0  0  0  0  0  0  0  0  0  0
   -3.8588   -2.8566   -1.4323 H   0  0  0  0  0  0  0  0  0  0  0  0
   -6.6919    0.1875   -3.2722 H   0  0  0  0  0  0  0  0  0  0  0  0
   -6.3018    1.0864   -1.8053 H   0  0  0  0  0  0  0  0  0  0  0  0
   -4.4475    0.4632   -4.2124 H   0  0  0  0  0  0  0  0  0  0  0  0
   -5.2269    2.0411   -3.8925 H   0  0  0  0  0  0  0  0  0  0  0  0
   -3.1173    0.7276   -2.0446 H   0  0  0  0  0  0  0  0  0  0  0  0
   -2.7530    1.8788   -3.3421 H   0  0  0  0  0  0  0  0  0  0  0  0
   -3.6722    3.7335   -2.2695 H   0  0  0  0  0  0  0  0  0  0  0  0
   -4.8217    2.7790   -1.2935 H   0  0  0  0  0  0  0  0  0  0  0  0
   -1.0780    2.3908   -1.6757 H   0  0  0  0  0  0  0  0  0  0  0  0
    0.5402    2.2462   -0.0694 H   0  0  0  0  0  0  0  0  0  0  0  0
   -1.1183    4.3070    1.5224 H   0  0  0  0  0  0  0  0  0  0  0  0
    1.9169    3.7222    1.4014 H   0  0  0  0  0  0  0  0  0  0  0  0
    0.8204    3.3298    2.7790 H   0  0  0  0  0  0  0  0  0  0  0  0
    1.1179    5.0405    2.3418 H   0  0  0  0  0  0  0  0  0  0  0  0
   -0.8798    5.1154   -0.8023 H   0  0  0  0  0  0  0  0  0  0  0  0
    0.2194    6.0270    0.2768 H   0  0  0  0  0  0  0  0  0  0  0  0
    0.8862    4.7289   -0.7890 H   0  0  0  0  0  0  0  0  0  0  0  0
   -0.3486   -0.1214    0.1482 H   0  0  0  0  0  0  0  0  0  0  0  0
   -5.3429    0.8798    0.1292 H   0  0  0  0  0  0  0  0  0  0  0  0
   -3.8791    0.6709    2.0503 H   0  0  0  0  0  0  0  0  0  0  0  0
   -0.5879   -3.1473   -1.6355 H   0  0  0  0  0  0  0  0  0  0  0  0
   -1.8268   -1.4192   -2.8823 H   0  0  0  0  0  0  0  0  0  0  0  0
   -0.6845    0.6616   -3.5973 H   0  0  0  0  0  0  0  0  0  0  0  0
    1.6990    1.0244   -3.0384 H   0  0  0  0  0  0  0  0  0  0  0  0
    2.9596   -0.6973   -1.8075 H   0  0  0  0  0  0  0  0  0  0  0  0
  1  2  1  0
  2  3  1  0
  2  4  1  0
  4  5  1  0
  5  6  1  0
  6  7  1  0
  7  8  1  0
  8  9  1  0
  8 10  1  0
 10 11  1  0
 11 12  1  0
 12 13  2  0
 13 14  1  0
 14 15  2  0
 15 16  1  0
 16 17  1  0
 17 18  1  0
 18 19  1  0
 19 20  1  0
 20 21  1  0
 21 22  2  0
 21 23  1  0
 23 24  1  0
 24 25  1  0
 25 26  1  0
 25 27  1  0
 24 28  1  0
 28 29  2  0
 28 30  1  0
 15 31  1  0
 31 32  2  0
  6 33  1  0
 33 34  2  0
 33 35  2  0
 33 36  1  0
 36 37  2  0
 37 38  1  0
 38 39  2  0
 39 40  1  0
 40 41  2  0
 30 10  1  0
 32 12  1  0
 41 36  1  0
  1 42  1  0
  1 43  1  0
  1 44  1  0
  2 45  1  0
  3 46  1  0
  3 47  1  0
  3 48  1  0
  4 49  1  0
  4 50  1  0
  5 51  1  0
  5 52  1  0
  7 53  1  0
  7 54  1  0
  8 55  1  6
  9 56  1  0
 10 57  1  1
 11 58  1  0
 11 59  1  0
 13 60  1  0
 14 61  1  0
 17 62  1  0
 17 63  1  0
 18 64  1  0
 18 65  1  0
 19 66  1  0
 19 67  1  0
 20 68  1  0
 20 69  1  0
 23 70  1  0
 24 71  1  6
 25 72  1  0
 26 73  1  0
 26 74  1  0
 26 75  1  0
 27 76  1  0
 27 77  1  0
 27 78  1  0
 30 79  1  0
 31 80  1  0
 32 81  1  0
 37 82  1  0
 38 83  1  0
 39 84  1  0
 40 85  1  0
 41 86  1  0
M  END
$$$$
