
     RDKit          3D

 74 77  0  0  0  0  0  0  0  0999 V2000
   -7.0899    4.7722    0.6014 C   0  0  0  0  0  0  0  0  0  0  0  0
   -5.7098    4.8209    0.2548 O   0  0  0  0  0  0  0  0  0  0  0  0
   -4.9819    3.7338   -0.2514 C   0  0  0  0  0  0  0  0  0  0  0  0
   -3.6268    3.9210   -0.5489 C   0  0  0  0  0  0  0  0  0  0  0  0
   -2.8586    2.8687   -1.0545 C   0  0  0  0  0  0  0  0  0  0  0  0
   -3.4401    1.6122   -1.2705 C   0  0  0  0  0  0  0  0  0  0  0  0
   -2.4708    0.2678   -1.8746 S   0  0  0  0  0  0  0  0  0  0  0  0
   -1.2409    0.8000   -2.5582 O   0  0  0  0  0  0  0  0  0  0  0  0
   -3.2813   -0.4796   -2.8957 O   0  0  0  0  0  0  0  0  0  0  0  0
   -2.0174   -0.8408   -0.6008 N   0  0  0  0  0  0  0  0  0  0  0  0
   -1.8325   -0.1760    0.7057 C   0  0  0  0  0  0  0  0  0  0  0  0
   -0.5749    0.7427    0.7912 C   0  0  1  0  0  0  0  0  0  0  0  0
   -0.8397    1.8982    1.5506 O   0  0  0  0  0  0  0  0  0  0  0  0
    0.6921    0.0111    1.3184 C   0  0  2  0  0  0  0  0  0  0  0  0
    0.6866   -0.2003    2.8495 C   0  0  0  0  0  0  0  0  0  0  0  0
    1.8095   -1.1132    3.2725 C   0  0  0  0  0  0  0  0  0  0  0  0
    1.6307   -2.5069    3.2583 C   0  0  0  0  0  0  0  0  0  0  0  0
    2.6849   -3.3563    3.6072 C   0  0  0  0  0  0  0  0  0  0  0  0
    3.9252   -2.8222    3.9668 C   0  0  0  0  0  0  0  0  0  0  0  0
    4.1137   -1.4374    3.9765 C   0  0  0  0  0  0  0  0  0  0  0  0
    3.0621   -0.5843    3.6278 C   0  0  0  0  0  0  0  0  0  0  0  0
    1.8837    0.7723    0.9279 N   0  0  0  0  0  0  0  0  0  0  0  0
    2.5631    0.5552   -0.3140 C   0  0  0  0  0  0  0  0  0  0  0  0
    2.2236   -0.3967   -1.0698 O   0  0  0  0  0  0  0  0  0  0  0  0
    3.6037    1.4138   -0.6813 O   0  0  0  0  0  0  0  0  0  0  0  0
    4.3009    1.3048   -1.9222 C   0  0  0  0  0  0  0  0  0  0  0  0
    5.4447    2.2692   -1.9769 C   0  0  0  0  0  0  0  0  0  0  0  0
    5.5081    2.6316   -3.4466 C   0  0  0  0  0  0  0  0  0  0  0  0
    4.2505    2.4032   -4.0420 O   0  0  0  0  0  0  0  0  0  0  0  0
    3.4416    1.7422   -3.0959 C   0  0  0  0  0  0  0  0  0  0  0  0
   -0.8574   -1.4506   -0.9691 O   0  0  0  0  0  0  0  0  0  0  0  0
   -1.1574   -2.8114   -1.1825 C   0  0  0  0  0  0  0  0  0  0  0  0
   -0.0167   -3.4819   -1.9280 C   0  0  0  0  0  0  0  0  0  0  0  0
   -0.0674   -4.9464   -1.5186 C   0  0  0  0  0  0  0  0  0  0  0  0
   -0.7938   -4.9992   -0.1760 C   0  0  0  0  0  0  0  0  0  0  0  0
   -1.2612   -3.5809    0.1297 C   0  0  0  0  0  0  0  0  0  0  0  0
   -4.7944    1.4172   -0.9723 C   0  0  0  0  0  0  0  0  0  0  0  0
   -5.5639    2.4696   -0.4674 C   0  0  0  0  0  0  0  0  0  0  0  0
   -7.4057    5.7684    0.9734 H   0  0  0  0  0  0  0  0  0  0  0  0
   -7.6990    4.5165   -0.2913 H   0  0  0  0  0  0  0  0  0  0  0  0
   -7.2556    4.0237    1.4048 H   0  0  0  0  0  0  0  0  0  0  0  0
   -3.1663    4.8869   -0.3843 H   0  0  0  0  0  0  0  0  0  0  0  0
   -1.8109    3.0342   -1.2690 H   0  0  0  0  0  0  0  0  0  0  0  0
   -2.7461    0.4047    0.9509 H   0  0  0  0  0  0  0  0  0  0  0  0
   -1.7858   -0.9588    1.4897 H   0  0  0  0  0  0  0  0  0  0  0  0
   -0.3400    1.0972   -0.2312 H   0  0  0  0  0  0  0  0  0  0  0  0
   -1.2701    1.6164    2.3995 H   0  0  0  0  0  0  0  0  0  0  0  0
    0.7406   -0.9957    0.8527 H   0  0  0  0  0  0  0  0  0  0  0  0
   -0.2777   -0.6430    3.1764 H   0  0  0  0  0  0  0  0  0  0  0  0
    0.7825    0.7764    3.3726 H   0  0  0  0  0  0  0  0  0  0  0  0
    0.6766   -2.9342    2.9780 H   0  0  0  0  0  0  0  0  0  0  0  0
    2.5409   -4.4290    3.5963 H   0  0  0  0  0  0  0  0  0  0  0  0
    4.7407   -3.4811    4.2354 H   0  0  0  0  0  0  0  0  0  0  0  0
    5.0760   -1.0250    4.2507 H   0  0  0  0  0  0  0  0  0  0  0  0
    3.2249    0.4863    3.6313 H   0  0  0  0  0  0  0  0  0  0  0  0
    2.1489    1.6159    1.4852 H   0  0  0  0  0  0  0  0  0  0  0  0
    4.6755    0.2668   -2.0747 H   0  0  0  0  0  0  0  0  0  0  0  0
    5.2201    3.1788   -1.3756 H   0  0  0  0  0  0  0  0  0  0  0  0
    6.3920    1.8069   -1.6232 H   0  0  0  0  0  0  0  0  0  0  0  0
    6.2663    1.9999   -3.9586 H   0  0  0  0  0  0  0  0  0  0  0  0
    5.7939    3.6978   -3.5715 H   0  0  0  0  0  0  0  0  0  0  0  0
    2.9576    0.8615   -3.5692 H   0  0  0  0  0  0  0  0  0  0  0  0
    2.6467    2.4425   -2.7571 H   0  0  0  0  0  0  0  0  0  0  0  0
   -2.0923   -2.9428   -1.7799 H   0  0  0  0  0  0  0  0  0  0  0  0
    0.9565   -3.0450   -1.6094 H   0  0  0  0  0  0  0  0  0  0  0  0
   -0.1272   -3.3624   -3.0278 H   0  0  0  0  0  0  0  0  0  0  0  0
   -0.6363   -5.5275   -2.2776 H   0  0  0  0  0  0  0  0  0  0  0  0
    0.9579   -5.3685   -1.4370 H   0  0  0  0  0  0  0  0  0  0  0  0
   -0.1143   -5.3641    0.6253 H   0  0  0  0  0  0  0  0  0  0  0  0
   -1.6679   -5.6836   -0.2428 H   0  0  0  0  0  0  0  0  0  0  0  0
   -0.5875   -3.1292    0.8895 H   0  0  0  0  0  0  0  0  0  0  0  0
   -2.3031   -3.5719    0.5168 H   0  0  0  0  0  0  0  0  0  0  0  0
   -5.2525    0.4480   -1.1238 H   0  0  0  0  0  0  0  0  0  0  0  0
   -6.6068    2.2893   -0.2456 H   0  0  0  0  0  0  0  0  0  0  0  0
  1  2  1  0
  2  3  1  0
  3  4  2  0
  4  5  1  0
  5  6  2  0
  6  7  1  0
  7  8  2  0
  7  9  2  0
  7 10  1  0
 10 11  1  0
 11 12  1  0
 12 13  1  0
 12 14  1  0
 14 15  1  0
 15 16  1  0
 16 17  2  0
 17 18  1  0
 18 19  2  0
 19 20  1  0
 20 21  2  0
 14 22  1  0
 22 23  1  0
 23 24  2  0
 23 25  1  0
 25 26  1  0
 26 27  1  0
 27 28  1  0
 28 29  1  0
 29 30  1  0
 10 31  1  0
 31 32  1  0
 32 33  1  0
 33 34  1  0
 34 35  1  0
 35 36  1  0
  6 37  1  0
 37 38  2  0
 21 16  1  0
 30 26  1  0
 36 32  1  0
 38  3  1  0
  1 39  1  0
  1 40  1  0
  1 41  1  0
  4 42  1  0
  5 43  1  0
 11 44  1  0
 11 45  1  0
 12 46  1  6
 13 47  1  0
 14 48  1  6
 15 49  1  0
 15 50  1  0
 17 51  1  0
 18 52  1  0
 19 53  1  0
 20 54  1  0
 21 55  1  0
 22 56  1  0
 26 57  1  0
 27 58  1  0
 27 59  1  0
 28 60  1  0
 28 61  1  0
 30 62  1  0
 30 63  1  0
 32 64  1  0
 33 65  1  0
 33 66  1  0
 34 67  1  0
 34 68  1  0
 35 69  1  0
 35 70  1  0
 36 71  1  0
 36 72  1  0
 37 73  1  0
 38 74  1  0
M  END
$$$$
