
     RDKit          3D

 73 74  0  0  0  0  0  0  0  0999 V2000
   -0.1697   -4.5725    0.7776 C   0  0  0  0  0  0  0  0  0  0  0  0
   -0.7864   -3.6287   -0.2022 C   0  0  0  0  0  0  0  0  0  0  0  0
   -0.2634   -3.4791   -1.3397 O   0  0  0  0  0  0  0  0  0  0  0  0
   -1.9544   -2.8825    0.1643 N   0  0  0  0  0  0  0  0  0  0  0  0
   -2.6134   -1.9578   -0.7623 C   0  0  1  0  0  0  0  0  0  0  0  0
   -4.0324   -1.6235   -0.2628 C   0  0  0  0  0  0  0  0  0  0  0  0
   -4.7676   -0.7352   -1.2256 C   0  0  0  0  0  0  0  0  0  0  0  0
   -5.3618   -1.2811   -2.4027 N   0  0  0  0  0  0  0  0  0  0  0  0
   -4.8306    0.5050   -1.0114 O   0  0  0  0  0  0  0  0  0  0  0  0
   -1.7928   -0.7030   -0.9026 C   0  0  0  0  0  0  0  0  0  0  0  0
   -1.4365   -0.3201   -2.0499 O   0  0  0  0  0  0  0  0  0  0  0  0
   -1.4716    0.0837    0.2525 N   0  0  0  0  0  0  0  0  0  0  0  0
   -1.2582    1.5315    0.1710 C   0  0  1  0  0  0  0  0  0  0  0  0
   -2.0486    2.2339    1.2944 C   0  0  0  0  0  0  0  0  0  0  0  0
   -2.1430    4.0478    1.0546 S   0  0  0  0  0  0  0  0  0  0  0  0
   -3.4951    3.9882   -0.1274 C   0  0  0  0  0  0  0  0  0  0  0  0
   -3.2311    4.0329   -1.5028 C   0  0  0  0  0  0  0  0  0  0  0  0
   -4.2845    3.9752   -2.4208 C   0  0  0  0  0  0  0  0  0  0  0  0
   -5.6041    3.8844   -1.9672 C   0  0  0  0  0  0  0  0  0  0  0  0
   -5.8714    3.8557   -0.5949 C   0  0  0  0  0  0  0  0  0  0  0  0
   -4.8191    3.9119    0.3247 C   0  0  0  0  0  0  0  0  0  0  0  0
    0.2566    1.8740    0.1691 C   0  0  2  0  0  0  0  0  0  0  0  0
    0.8194    1.4913   -1.0595 O   0  0  0  0  0  0  0  0  0  0  0  0
    1.0397    1.1952    1.3151 C   0  0  0  0  0  0  0  0  0  0  0  0
    2.4648    1.7069    1.3834 C   0  0  0  0  0  0  0  0  0  0  0  0
    2.6748    2.9824    1.9413 C   0  0  0  0  0  0  0  0  0  0  0  0
    3.9608    3.5088    2.0603 C   0  0  0  0  0  0  0  0  0  0  0  0
    5.0592    2.7712    1.6266 C   0  0  0  0  0  0  0  0  0  0  0  0
    4.8760    1.5054    1.0700 C   0  0  0  0  0  0  0  0  0  0  0  0
    3.5875    0.9556    0.9353 C   0  0  0  0  0  0  0  0  0  0  0  0
    3.4678   -0.3904    0.3267 C   0  0  0  0  0  0  0  0  0  0  0  0
    2.5917   -0.6011   -0.5531 O   0  0  0  0  0  0  0  0  0  0  0  0
    4.3783   -1.4374    0.7150 N   0  0  0  0  0  0  0  0  0  0  0  0
    4.4925   -2.7508    0.0509 C   0  0  0  0  0  0  0  0  0  0  0  0
    3.1785   -3.5392    0.2025 C   0  0  0  0  0  0  0  0  0  0  0  0
    4.8386   -2.5669   -1.4398 C   0  0  0  0  0  0  0  0  0  0  0  0
    5.6256   -3.5555    0.7204 C   0  0  0  0  0  0  0  0  0  0  0  0
   -0.9529   -5.2326    1.2052 H   0  0  0  0  0  0  0  0  0  0  0  0
    0.5973   -5.2045    0.2818 H   0  0  0  0  0  0  0  0  0  0  0  0
    0.3072   -3.9946    1.5962 H   0  0  0  0  0  0  0  0  0  0  0  0
   -2.3432   -3.0142    1.1263 H   0  0  0  0  0  0  0  0  0  0  0  0
   -2.7083   -2.4557   -1.7540 H   0  0  0  0  0  0  0  0  0  0  0  0
   -3.9830   -1.1318    0.7341 H   0  0  0  0  0  0  0  0  0  0  0  0
   -4.6077   -2.5664   -0.1383 H   0  0  0  0  0  0  0  0  0  0  0  0
   -5.3027   -2.3041   -2.6030 H   0  0  0  0  0  0  0  0  0  0  0  0
   -5.8589   -0.6597   -3.0787 H   0  0  0  0  0  0  0  0  0  0  0  0
   -1.5196   -0.3666    1.1949 H   0  0  0  0  0  0  0  0  0  0  0  0
   -1.6859    1.8948   -0.7869 H   0  0  0  0  0  0  0  0  0  0  0  0
   -3.0784    1.8173    1.3387 H   0  0  0  0  0  0  0  0  0  0  0  0
   -1.5894    2.0354    2.2826 H   0  0  0  0  0  0  0  0  0  0  0  0
   -2.2120    4.1065   -1.8607 H   0  0  0  0  0  0  0  0  0  0  0  0
   -4.0782    4.0017   -3.4829 H   0  0  0  0  0  0  0  0  0  0  0  0
   -6.4187    3.8388   -2.6782 H   0  0  0  0  0  0  0  0  0  0  0  0
   -6.8930    3.7882   -0.2442 H   0  0  0  0  0  0  0  0  0  0  0  0
   -5.0321    3.8854    1.3857 H   0  0  0  0  0  0  0  0  0  0  0  0
    0.3667    2.9773    0.2842 H   0  0  0  0  0  0  0  0  0  0  0  0
    0.5442    2.1703   -1.7300 H   0  0  0  0  0  0  0  0  0  0  0  0
    1.0076    0.0918    1.2111 H   0  0  0  0  0  0  0  0  0  0  0  0
    0.5549    1.4142    2.2884 H   0  0  0  0  0  0  0  0  0  0  0  0
    1.8354    3.5707    2.2922 H   0  0  0  0  0  0  0  0  0  0  0  0
    4.1055    4.4908    2.4920 H   0  0  0  0  0  0  0  0  0  0  0  0
    6.0562    3.1824    1.7184 H   0  0  0  0  0  0  0  0  0  0  0  0
    5.7460    0.9593    0.7256 H   0  0  0  0  0  0  0  0  0  0  0  0
    5.0046   -1.2382    1.5288 H   0  0  0  0  0  0  0  0  0  0  0  0
    2.3480   -3.0543   -0.3478 H   0  0  0  0  0  0  0  0  0  0  0  0
    3.2902   -4.5689   -0.2009 H   0  0  0  0  0  0  0  0  0  0  0  0
    2.8947   -3.6091    1.2744 H   0  0  0  0  0  0  0  0  0  0  0  0
    4.0107   -2.0782   -1.9927 H   0  0  0  0  0  0  0  0  0  0  0  0
    5.7493   -1.9394   -1.5480 H   0  0  0  0  0  0  0  0  0  0  0  0
    5.0282   -3.5505   -1.9216 H   0  0  0  0  0  0  0  0  0  0  0  0
    5.4079   -3.7089    1.7995 H   0  0  0  0  0  0  0  0  0  0  0  0
    5.7425   -4.5524    0.2424 H   0  0  0  0  0  0  0  0  0  0  0  0
    6.5908   -3.0110    0.6344 H   0  0  0  0  0  0  0  0  0  0  0  0
  1  2  1  0
  2  3  2  0
  2  4  1  0
  4  5  1  0
  5  6  1  0
  6  7  1  0
  7  8  1  0
  7  9  2  0
  5 10  1  0
 10 11  2  0
 10 12  1  0
 12 13  1  0
 13 14  1  0
 14 15  1  0
 15 16  1  0
 16 17  2  0
 17 18  1  0
 18 19  2  0
 19 20  1  0
 20 21  2  0
 13 22  1  0
 22 23  1  0
 22 24  1  0
 24 25  1  0
 25 26  2  0
 26 27  1  0
 27 28  2  0
 28 29  1  0
 29 30  2  0
 30 31  1  0
 31 32  2  0
 31 33  1  0
 33 34  1  0
 34 35  1  0
 34 36  1  0
 34 37  1  0
 21 16  1  0
 30 25  1  0
  1 38  1  0
  1 39  1  0
  1 40  1  0
  4 41  1  0
  5 42  1  6
  6 43  1  0
  6 44  1  0
  8 45  1  0
  8 46  1  0
 12 47  1  0
 13 48  1  6
 14 49  1  0
 14 50  1  0
 17 51  1  0
 18 52  1  0
 19 53  1  0
 20 54  1  0
 21 55  1  0
 22 56  1  1
 23 57  1  0
 24 58  1  0
 24 59  1  0
 26 60  1  0
 27 61  1  0
 28 62  1  0
 29 63  1  0
 33 64  1  0
 35 65  1  0
 35 66  1  0
 35 67  1  0
 36 68  1  0
 36 69  1  0
 36 70  1  0
 37 71  1  0
 37 72  1  0
 37 73  1  0
M  END
$$$$
