
     RDKit          3D

 72 75  0  0  0  0  0  0  0  0999 V2000
    0.4394   -3.9453    1.0699 C   0  0  0  0  0  0  0  0  0  0  0  0
   -0.7744   -3.2669    0.4408 C   0  0  0  0  0  0  0  0  0  0  0  0
   -0.3515   -2.0593   -0.4119 C   0  0  0  0  0  0  0  0  0  0  0  0
   -1.5409   -1.2187   -0.9373 C   0  0  0  0  0  0  0  0  0  0  0  0
   -2.4320   -2.0462   -1.8935 C   0  0  0  0  0  0  0  0  0  0  0  0
   -3.4568   -1.2074   -2.6807 C   0  0  0  0  0  0  0  0  0  0  0  0
   -4.4829   -0.5563   -1.7883 C   0  0  0  0  0  0  0  0  0  0  0  0
   -5.4687   -1.3354   -1.1593 C   0  0  0  0  0  0  0  0  0  0  0  0
   -6.4053   -0.7367   -0.3114 C   0  0  0  0  0  0  0  0  0  0  0  0
   -6.3670    0.6420   -0.0876 C   0  0  0  0  0  0  0  0  0  0  0  0
   -5.3926    1.4247   -0.7121 C   0  0  0  0  0  0  0  0  0  0  0  0
   -4.4515    0.8301   -1.5585 C   0  0  0  0  0  0  0  0  0  0  0  0
   -1.0070   -0.0945   -1.6459 O   0  0  0  0  0  0  0  0  0  0  0  0
   -0.5885    1.0744   -0.9953 C   0  0  0  0  0  0  0  0  0  0  0  0
    0.2755    1.9351   -1.6637 O   0  0  0  0  0  0  0  0  0  0  0  0
   -1.0219    1.3516    0.2502 C   0  0  0  0  0  0  0  0  0  0  0  0
   -0.5311    2.5588    1.0433 C   0  0  0  0  0  0  0  0  0  0  0  0
   -1.0091    3.9010    0.4378 C   0  0  0  0  0  0  0  0  0  0  0  0
   -2.5296    4.0479    0.4933 C   0  0  0  0  0  0  0  0  0  0  0  0
    0.9726    2.4609    1.2624 C   0  0  0  0  0  0  0  0  0  0  0  0
    1.9037    3.2216    0.5269 C   0  0  0  0  0  0  0  0  0  0  0  0
    3.2747    3.0269    0.7064 C   0  0  0  0  0  0  0  0  0  0  0  0
    3.7379    2.0649    1.6046 C   0  0  0  0  0  0  0  0  0  0  0  0
    2.8287    1.2885    2.3403 C   0  0  0  0  0  0  0  0  0  0  0  0
    3.2786    0.2665    3.2430 N   0  0  0  0  0  0  0  0  0  0  0  0
    4.7186   -0.6562    2.9548 S   0  0  0  0  0  0  0  0  0  0  0  0
    4.6834   -1.9080    3.7850 O   0  0  0  0  0  0  0  0  0  0  0  0
    5.9170    0.1614    3.3486 O   0  0  0  0  0  0  0  0  0  0  0  0
    4.7971   -1.1062    1.2539 C   0  0  0  0  0  0  0  0  0  0  0  0
    3.6367   -1.5349    0.5949 C   0  0  0  0  0  0  0  0  0  0  0  0
    3.6812   -1.8767   -0.7595 C   0  0  0  0  0  0  0  0  0  0  0  0
    4.8886   -1.7944   -1.4640 C   0  0  0  0  0  0  0  0  0  0  0  0
    4.9344   -2.1439   -2.8595 C   0  0  0  0  0  0  0  0  0  0  0  0
    4.9709   -2.4249   -3.9815 N   0  0  0  0  0  0  0  0  0  0  0  0
    6.0513   -1.3708   -0.8070 C   0  0  0  0  0  0  0  0  0  0  0  0
    6.0059   -1.0284    0.5484 C   0  0  0  0  0  0  0  0  0  0  0  0
    1.4536    1.5021    2.1733 C   0  0  0  0  0  0  0  0  0  0  0  0
   -2.0051    0.4181    0.8422 C   0  0  0  0  0  0  0  0  0  0  0  0
   -2.5908    0.6884    1.9235 O   0  0  0  0  0  0  0  0  0  0  0  0
   -2.3198   -0.7641    0.1715 O   0  0  0  0  0  0  0  0  0  0  0  0
    0.1125   -4.8445    1.6333 H   0  0  0  0  0  0  0  0  0  0  0  0
    0.9449   -3.2523    1.7752 H   0  0  0  0  0  0  0  0  0  0  0  0
    1.1589   -4.2594    0.2837 H   0  0  0  0  0  0  0  0  0  0  0  0
   -1.3013   -4.0117   -0.1923 H   0  0  0  0  0  0  0  0  0  0  0  0
   -1.4597   -2.9430    1.2533 H   0  0  0  0  0  0  0  0  0  0  0  0
    0.2572   -2.4136   -1.2724 H   0  0  0  0  0  0  0  0  0  0  0  0
    0.2999   -1.4000    0.2032 H   0  0  0  0  0  0  0  0  0  0  0  0
   -1.7847   -2.5648   -2.6343 H   0  0  0  0  0  0  0  0  0  0  0  0
   -2.9737   -2.8305   -1.3225 H   0  0  0  0  0  0  0  0  0  0  0  0
   -2.9304   -0.4476   -3.2983 H   0  0  0  0  0  0  0  0  0  0  0  0
   -3.9849   -1.8761   -3.3947 H   0  0  0  0  0  0  0  0  0  0  0  0
   -5.5084   -2.4051   -1.3230 H   0  0  0  0  0  0  0  0  0  0  0  0
   -7.1608   -1.3419    0.1727 H   0  0  0  0  0  0  0  0  0  0  0  0
   -7.0929    1.1040    0.5689 H   0  0  0  0  0  0  0  0  0  0  0  0
   -5.3667    2.4925   -0.5387 H   0  0  0  0  0  0  0  0  0  0  0  0
   -3.6955    1.4482   -2.0266 H   0  0  0  0  0  0  0  0  0  0  0  0
    0.5984    1.7182   -2.5984 H   0  0  0  0  0  0  0  0  0  0  0  0
   -0.9758    2.5240    2.0625 H   0  0  0  0  0  0  0  0  0  0  0  0
   -0.6887    4.0043   -0.6193 H   0  0  0  0  0  0  0  0  0  0  0  0
   -0.5614    4.7401    1.0142 H   0  0  0  0  0  0  0  0  0  0  0  0
   -2.8211    5.0453    0.1021 H   0  0  0  0  0  0  0  0  0  0  0  0
   -3.0143    3.2711   -0.1326 H   0  0  0  0  0  0  0  0  0  0  0  0
   -2.8922    3.9574    1.5392 H   0  0  0  0  0  0  0  0  0  0  0  0
    1.5837    3.9575   -0.1968 H   0  0  0  0  0  0  0  0  0  0  0  0
    3.9818    3.6171    0.1378 H   0  0  0  0  0  0  0  0  0  0  0  0
    4.8043    1.9323    1.7226 H   0  0  0  0  0  0  0  0  0  0  0  0
    2.6194   -0.0955    3.9680 H   0  0  0  0  0  0  0  0  0  0  0  0
    2.6979   -1.5966    1.1289 H   0  0  0  0  0  0  0  0  0  0  0  0
    2.7764   -2.2034   -1.2569 H   0  0  0  0  0  0  0  0  0  0  0  0
    6.9910   -1.3042   -1.3421 H   0  0  0  0  0  0  0  0  0  0  0  0
    6.9111   -0.7013    1.0433 H   0  0  0  0  0  0  0  0  0  0  0  0
    0.7518    0.8898    2.7275 H   0  0  0  0  0  0  0  0  0  0  0  0
  1  2  1  0
  2  3  1  0
  3  4  1  0
  4  5  1  0
  5  6  1  0
  6  7  1  0
  7  8  2  0
  8  9  1  0
  9 10  2  0
 10 11  1  0
 11 12  2  0
  4 13  1  0
 13 14  1  0
 14 15  1  0
 14 16  2  0
 16 17  1  0
 17 18  1  0
 18 19  1  0
 17 20  1  0
 20 21  2  0
 21 22  1  0
 22 23  2  0
 23 24  1  0
 24 25  1  0
 25 26  1  0
 26 27  2  0
 26 28  2  0
 26 29  1  0
 29 30  2  0
 30 31  1  0
 31 32  2  0
 32 33  1  0
 33 34  3  0
 32 35  1  0
 35 36  2  0
 24 37  2  0
 16 38  1  0
 38 39  2  0
 38 40  1  0
 12  7  1  0
 36 29  1  0
 37 20  1  0
 40  4  1  0
  1 41  1  0
  1 42  1  0
  1 43  1  0
  2 44  1  0
  2 45  1  0
  3 46  1  0
  3 47  1  0
  5 48  1  0
  5 49  1  0
  6 50  1  0
  6 51  1  0
  8 52  1  0
  9 53  1  0
 10 54  1  0
 11 55  1  0
 12 56  1  0
 15 57  1  0
 17 58  1  0
 18 59  1  0
 18 60  1  0
 19 61  1  0
 19 62  1  0
 19 63  1  0
 21 64  1  0
 22 65  1  0
 23 66  1  0
 25 67  1  0
 30 68  1  0
 31 69  1  0
 35 70  1  0
 36 71  1  0
 37 72  1  0
M  END
$$$$
