
     RDKit          3D

 72 75  0  0  0  0  0  0  0  0999 V2000
   -5.7178    0.0293    3.0064 C   0  0  0  0  0  0  0  0  0  0  0  0
   -4.8730    0.2747    1.7593 C   0  0  0  0  0  0  0  0  0  0  0  0
   -3.3806    0.3820    2.1162 C   0  0  0  0  0  0  0  0  0  0  0  0
   -2.4481    0.4832    0.8856 C   0  0  0  0  0  0  0  0  0  0  0  0
   -2.6829    1.7930    0.1048 C   0  0  0  0  0  0  0  0  0  0  0  0
   -1.6724    1.9729   -1.0388 C   0  0  0  0  0  0  0  0  0  0  0  0
   -1.9210    3.2666   -1.7655 C   0  0  0  0  0  0  0  0  0  0  0  0
   -1.3464    4.4610   -1.2993 C   0  0  0  0  0  0  0  0  0  0  0  0
   -1.5946    5.6670   -1.9619 C   0  0  0  0  0  0  0  0  0  0  0  0
   -2.4250    5.6906   -3.0858 C   0  0  0  0  0  0  0  0  0  0  0  0
   -3.0123    4.5088   -3.5463 C   0  0  0  0  0  0  0  0  0  0  0  0
   -2.7664    3.3005   -2.8869 C   0  0  0  0  0  0  0  0  0  0  0  0
   -1.0953    0.4664    1.3543 O   0  0  0  0  0  0  0  0  0  0  0  0
   -0.3673   -0.7129    1.5623 C   0  0  0  0  0  0  0  0  0  0  0  0
    0.8141   -0.6344    2.2900 O   0  0  0  0  0  0  0  0  0  0  0  0
   -0.7919   -1.8825    1.0427 C   0  0  0  0  0  0  0  0  0  0  0  0
   -0.0247   -3.1923    1.2110 C   0  0  0  0  0  0  0  0  0  0  0  0
    0.1100   -3.6042    2.6983 C   0  0  0  0  0  0  0  0  0  0  0  0
    0.6799   -5.0142    2.8613 C   0  0  0  0  0  0  0  0  0  0  0  0
    1.2762   -3.1445    0.4204 C   0  0  0  0  0  0  0  0  0  0  0  0
    1.2348   -3.4110   -0.9603 C   0  0  0  0  0  0  0  0  0  0  0  0
    2.3784   -3.2692   -1.7478 C   0  0  0  0  0  0  0  0  0  0  0  0
    3.5733   -2.8342   -1.1756 C   0  0  0  0  0  0  0  0  0  0  0  0
    3.6362   -2.5503    0.1965 C   0  0  0  0  0  0  0  0  0  0  0  0
    4.8330   -2.0238    0.7843 N   0  0  0  0  0  0  0  0  0  0  0  0
    5.7489   -0.7869   -0.0131 S   0  0  0  0  0  0  0  0  0  0  0  0
    6.5346   -0.0081    1.0036 O   0  0  0  0  0  0  0  0  0  0  0  0
    6.7005   -1.4237   -0.9869 O   0  0  0  0  0  0  0  0  0  0  0  0
    4.6408    0.3075   -0.8379 C   0  0  0  0  0  0  0  0  0  0  0  0
    4.7899    0.5845   -2.2041 C   0  0  0  0  0  0  0  0  0  0  0  0
    3.8717    1.4129   -2.8571 C   0  0  0  0  0  0  0  0  0  0  0  0
    2.7983    1.9688   -2.1490 C   0  0  0  0  0  0  0  0  0  0  0  0
    1.8515    2.8156   -2.8259 C   0  0  0  0  0  0  0  0  0  0  0  0
    1.0925    3.4960   -3.3737 N   0  0  0  0  0  0  0  0  0  0  0  0
    2.6495    1.6963   -0.7831 C   0  0  0  0  0  0  0  0  0  0  0  0
    3.5677    0.8681   -0.1307 C   0  0  0  0  0  0  0  0  0  0  0  0
    2.4962   -2.7286    0.9918 C   0  0  0  0  0  0  0  0  0  0  0  0
   -1.9885   -1.8308    0.1725 C   0  0  0  0  0  0  0  0  0  0  0  0
   -2.3726   -2.8446   -0.4682 O   0  0  0  0  0  0  0  0  0  0  0  0
   -2.6796   -0.6296    0.0199 O   0  0  0  0  0  0  0  0  0  0  0  0
   -6.7900   -0.0302    2.7236 H   0  0  0  0  0  0  0  0  0  0  0  0
   -5.5869    0.8612    3.7308 H   0  0  0  0  0  0  0  0  0  0  0  0
   -5.4252   -0.9275    3.4891 H   0  0  0  0  0  0  0  0  0  0  0  0
   -5.0383   -0.5637    1.0491 H   0  0  0  0  0  0  0  0  0  0  0  0
   -5.2215    1.2161    1.2852 H   0  0  0  0  0  0  0  0  0  0  0  0
   -3.0902   -0.5193    2.7004 H   0  0  0  0  0  0  0  0  0  0  0  0
   -3.2218    1.2654    2.7733 H   0  0  0  0  0  0  0  0  0  0  0  0
   -2.6000    2.6564    0.8016 H   0  0  0  0  0  0  0  0  0  0  0  0
   -3.7049    1.7932   -0.3311 H   0  0  0  0  0  0  0  0  0  0  0  0
   -1.7487    1.1205   -1.7489 H   0  0  0  0  0  0  0  0  0  0  0  0
   -0.6363    1.9733   -0.6378 H   0  0  0  0  0  0  0  0  0  0  0  0
   -0.7047    4.4562   -0.4268 H   0  0  0  0  0  0  0  0  0  0  0  0
   -1.1445    6.5835   -1.6030 H   0  0  0  0  0  0  0  0  0  0  0  0
   -2.6167    6.6250   -3.5972 H   0  0  0  0  0  0  0  0  0  0  0  0
   -3.6602    4.5295   -4.4130 H   0  0  0  0  0  0  0  0  0  0  0  0
   -3.2332    2.3930   -3.2495 H   0  0  0  0  0  0  0  0  0  0  0  0
    1.1351    0.2518    2.6598 H   0  0  0  0  0  0  0  0  0  0  0  0
   -0.6370   -4.0050    0.7617 H   0  0  0  0  0  0  0  0  0  0  0  0
   -0.9010   -3.5903    3.1620 H   0  0  0  0  0  0  0  0  0  0  0  0
    0.7341   -2.8949    3.2762 H   0  0  0  0  0  0  0  0  0  0  0  0
    0.7087   -5.2797    3.9391 H   0  0  0  0  0  0  0  0  0  0  0  0
    1.7131   -5.0697    2.4596 H   0  0  0  0  0  0  0  0  0  0  0  0
    0.0417   -5.7539    2.3329 H   0  0  0  0  0  0  0  0  0  0  0  0
    0.3085   -3.7142   -1.4325 H   0  0  0  0  0  0  0  0  0  0  0  0
    2.3326   -3.4776   -2.8089 H   0  0  0  0  0  0  0  0  0  0  0  0
    4.4453   -2.7131   -1.8043 H   0  0  0  0  0  0  0  0  0  0  0  0
    4.9948   -2.1534    1.8081 H   0  0  0  0  0  0  0  0  0  0  0  0
    5.6078    0.1543   -2.7672 H   0  0  0  0  0  0  0  0  0  0  0  0
    3.9958    1.6159   -3.9141 H   0  0  0  0  0  0  0  0  0  0  0  0
    1.8247    2.1207   -0.2238 H   0  0  0  0  0  0  0  0  0  0  0  0
    3.4364    0.6534    0.9225 H   0  0  0  0  0  0  0  0  0  0  0  0
    2.5647   -2.4964    2.0442 H   0  0  0  0  0  0  0  0  0  0  0  0
  1  2  1  0
  2  3  1  0
  3  4  1  0
  4  5  1  0
  5  6  1  0
  6  7  1  0
  7  8  2  0
  8  9  1  0
  9 10  2  0
 10 11  1  0
 11 12  2  0
  4 13  1  0
 13 14  1  0
 14 15  1  0
 14 16  2  0
 16 17  1  0
 17 18  1  0
 18 19  1  0
 17 20  1  0
 20 21  2  0
 21 22  1  0
 22 23  2  0
 23 24  1  0
 24 25  1  0
 25 26  1  0
 26 27  2  0
 26 28  2  0
 26 29  1  0
 29 30  2  0
 30 31  1  0
 31 32  2  0
 32 33  1  0
 33 34  3  0
 32 35  1  0
 35 36  2  0
 24 37  2  0
 16 38  1  0
 38 39  2  0
 38 40  1  0
 12  7  1  0
 36 29  1  0
 37 20  1  0
 40  4  1  0
  1 41  1  0
  1 42  1  0
  1 43  1  0
  2 44  1  0
  2 45  1  0
  3 46  1  0
  3 47  1  0
  5 48  1  0
  5 49  1  0
  6 50  1  0
  6 51  1  0
  8 52  1  0
  9 53  1  0
 10 54  1  0
 11 55  1  0
 12 56  1  0
 15 57  1  0
 17 58  1  0
 18 59  1  0
 18 60  1  0
 19 61  1  0
 19 62  1  0
 19 63  1  0
 21 64  1  0
 22 65  1  0
 23 66  1  0
 25 67  1  0
 30 68  1  0
 31 69  1  0
 35 70  1  0
 36 71  1  0
 37 72  1  0
M  END
$$$$
