
     RDKit          3D

 84 87  0  0  0  0  0  0  0  0999 V2000
   -6.5041   -1.9389    1.7808 C   0  0  0  0  0  0  0  0  0  0  0  0
   -5.9253   -1.4666    0.4427 C   0  0  0  0  0  0  0  0  0  0  0  0
   -6.0808   -2.5549   -0.6355 C   0  0  0  0  0  0  0  0  0  0  0  0
   -4.4932   -0.8408    0.5533 C   0  0  0  0  0  0  0  0  0  0  0  0
   -4.0400   -0.3966   -0.7727 N   0  0  0  0  0  0  0  0  0  0  0  0
   -4.4968    0.8209   -1.3829 C   0  0  0  0  0  0  0  0  0  0  0  0
   -5.4007    1.5093   -0.8354 O   0  0  0  0  0  0  0  0  0  0  0  0
   -3.9036    1.2829   -2.6797 C   0  0  0  0  0  0  0  0  0  0  0  0
   -3.3385    2.7048   -2.5533 C   0  0  2  0  0  0  0  0  0  0  0  0
   -2.0871    2.8082   -3.1963 O   0  0  0  0  0  0  0  0  0  0  0  0
   -2.0832    2.9987   -1.7990 C   0  0  2  0  0  0  0  0  0  0  0  0
   -1.2876    1.8878   -1.0807 C   0  0  2  0  0  0  0  0  0  0  0  0
   -1.6247    1.8670    0.4272 C   0  0  0  0  0  0  0  0  0  0  0  0
   -1.1095    3.0760    1.1700 C   0  0  0  0  0  0  0  0  0  0  0  0
   -1.8900    4.2405    1.2662 C   0  0  0  0  0  0  0  0  0  0  0  0
   -1.3958    5.3670    1.9311 C   0  0  0  0  0  0  0  0  0  0  0  0
   -0.1224    5.3386    2.5065 C   0  0  0  0  0  0  0  0  0  0  0  0
    0.6566    4.1816    2.4229 C   0  0  0  0  0  0  0  0  0  0  0  0
    0.1648    3.0528    1.7613 C   0  0  0  0  0  0  0  0  0  0  0  0
    0.1508    2.0932   -1.2894 N   0  0  0  0  0  0  0  0  0  0  0  0
    1.1219    1.0677   -1.0296 C   0  0  0  0  0  0  0  0  0  0  0  0
    0.7429   -0.0718   -0.6427 O   0  0  0  0  0  0  0  0  0  0  0  0
    2.5895    1.3493   -1.2600 C   0  0  0  0  0  0  0  0  0  0  0  0
    3.1129    2.4590   -0.3249 C   0  0  0  0  0  0  0  0  0  0  0  0
    4.5408    2.8017   -0.6355 C   0  0  0  0  0  0  0  0  0  0  0  0
    5.6065    2.2323    0.1251 N   0  0  0  0  0  0  0  0  0  0  0  0
    4.8032    3.5725   -1.5970 O   0  0  0  0  0  0  0  0  0  0  0  0
    3.4031    0.1272   -1.1566 N   0  0  0  0  0  0  0  0  0  0  0  0
    3.6043   -0.6189    0.0597 C   0  0  0  0  0  0  0  0  0  0  0  0
    2.9634   -0.3124    1.1020 O   0  0  0  0  0  0  0  0  0  0  0  0
    4.5600   -1.7476    0.0965 C   0  0  0  0  0  0  0  0  0  0  0  0
    4.7497   -2.4974    1.2704 C   0  0  0  0  0  0  0  0  0  0  0  0
    5.6623   -3.5544    1.2779 C   0  0  0  0  0  0  0  0  0  0  0  0
    6.3835   -3.8612    0.1187 C   0  0  0  0  0  0  0  0  0  0  0  0
    7.3081   -4.9160    0.0915 C   0  0  0  0  0  0  0  0  0  0  0  0
    8.0130   -5.1961   -1.0838 C   0  0  0  0  0  0  0  0  0  0  0  0
    7.7992   -4.4278   -2.2331 C   0  0  0  0  0  0  0  0  0  0  0  0
    6.8790   -3.3747   -2.2139 C   0  0  0  0  0  0  0  0  0  0  0  0
    6.1692   -3.0872   -1.0426 C   0  0  0  0  0  0  0  0  0  0  0  0
    5.2739   -2.0641   -1.0198 N   0  0  0  0  0  0  0  0  0  0  0  0
   -3.3529   -1.6631    1.2498 C   0  0  0  0  0  0  0  0  0  0  0  0
   -3.2206   -3.1186    0.7866 C   0  0  0  0  0  0  0  0  0  0  0  0
   -3.3835   -1.5795    2.7853 C   0  0  0  0  0  0  0  0  0  0  0  0
   -7.5976   -2.1068    1.6776 H   0  0  0  0  0  0  0  0  0  0  0  0
   -6.0475   -2.8969    2.1004 H   0  0  0  0  0  0  0  0  0  0  0  0
   -6.3517   -1.1667    2.5643 H   0  0  0  0  0  0  0  0  0  0  0  0
   -6.5886   -0.6352    0.1156 H   0  0  0  0  0  0  0  0  0  0  0  0
   -7.1606   -2.7214   -0.8377 H   0  0  0  0  0  0  0  0  0  0  0  0
   -5.6085   -2.2478   -1.5912 H   0  0  0  0  0  0  0  0  0  0  0  0
   -5.6577   -3.5254   -0.3153 H   0  0  0  0  0  0  0  0  0  0  0  0
   -4.6111    0.0779    1.1714 H   0  0  0  0  0  0  0  0  0  0  0  0
   -3.3304   -0.9687   -1.2841 H   0  0  0  0  0  0  0  0  0  0  0  0
   -3.1382    0.5663   -3.0472 H   0  0  0  0  0  0  0  0  0  0  0  0
   -4.7086    1.2969   -3.4443 H   0  0  0  0  0  0  0  0  0  0  0  0
   -3.9919    3.5694   -2.7950 H   0  0  0  0  0  0  0  0  0  0  0  0
   -1.8737    4.0611   -1.5551 H   0  0  0  0  0  0  0  0  0  0  0  0
   -1.5521    0.8969   -1.4999 H   0  0  0  0  0  0  0  0  0  0  0  0
   -1.1983    0.9487    0.8838 H   0  0  0  0  0  0  0  0  0  0  0  0
   -2.7241    1.7932    0.5640 H   0  0  0  0  0  0  0  0  0  0  0  0
   -2.8780    4.2765    0.8241 H   0  0  0  0  0  0  0  0  0  0  0  0
   -1.9997    6.2626    1.9991 H   0  0  0  0  0  0  0  0  0  0  0  0
    0.2592    6.2119    3.0194 H   0  0  0  0  0  0  0  0  0  0  0  0
    1.6413    4.1584    2.8716 H   0  0  0  0  0  0  0  0  0  0  0  0
    0.7743    2.1600    1.7123 H   0  0  0  0  0  0  0  0  0  0  0  0
    0.4831    2.9967   -1.6974 H   0  0  0  0  0  0  0  0  0  0  0  0
    2.6730    1.7275   -2.3037 H   0  0  0  0  0  0  0  0  0  0  0  0
    3.0240    2.1593    0.7389 H   0  0  0  0  0  0  0  0  0  0  0  0
    2.4999    3.3774   -0.4505 H   0  0  0  0  0  0  0  0  0  0  0  0
    6.5987    2.4572   -0.1090 H   0  0  0  0  0  0  0  0  0  0  0  0
    5.4099    1.5871    0.9220 H   0  0  0  0  0  0  0  0  0  0  0  0
    3.8845   -0.1926   -2.0270 H   0  0  0  0  0  0  0  0  0  0  0  0
    4.1986   -2.2695    2.1741 H   0  0  0  0  0  0  0  0  0  0  0  0
    5.8038   -4.1287    2.1857 H   0  0  0  0  0  0  0  0  0  0  0  0
    7.4844   -5.5197    0.9738 H   0  0  0  0  0  0  0  0  0  0  0  0
    8.7263   -6.0100   -1.1042 H   0  0  0  0  0  0  0  0  0  0  0  0
    8.3474   -4.6490   -3.1397 H   0  0  0  0  0  0  0  0  0  0  0  0
    6.7198   -2.7850   -3.1083 H   0  0  0  0  0  0  0  0  0  0  0  0
   -2.3980   -1.1688    0.9622 H   0  0  0  0  0  0  0  0  0  0  0  0
   -4.0160   -3.7531    1.2260 H   0  0  0  0  0  0  0  0  0  0  0  0
   -3.2490   -3.1849   -0.3207 H   0  0  0  0  0  0  0  0  0  0  0  0
   -2.2443   -3.5292    1.1225 H   0  0  0  0  0  0  0  0  0  0  0  0
   -3.4919   -0.5259    3.1196 H   0  0  0  0  0  0  0  0  0  0  0  0
   -2.4273   -1.9657    3.1991 H   0  0  0  0  0  0  0  0  0  0  0  0
   -4.2016   -2.1844    3.2196 H   0  0  0  0  0  0  0  0  0  0  0  0
  1  2  1  0
  2  3  1  0
  2  4  1  0
  4  5  1  0
  5  6  1  0
  6  7  2  0
  6  8  1  0
  8  9  1  0
  9 10  1  0
 10 11  1  0
 11 12  1  0
 12 13  1  0
 13 14  1  0
 14 15  2  0
 15 16  1  0
 16 17  2  0
 17 18  1  0
 18 19  2  0
 12 20  1  0
 20 21  1  0
 21 22  2  0
 21 23  1  0
 23 24  1  0
 24 25  1  0
 25 26  1  0
 25 27  2  0
 23 28  1  0
 28 29  1  0
 29 30  2  0
 29 31  1  0
 31 32  2  0
 32 33  1  0
 33 34  2  0
 34 35  1  0
 35 36  2  0
 36 37  1  0
 37 38  2  0
 38 39  1  0
 39 40  2  0
  4 41  1  0
 41 42  1  0
 41 43  1  0
 11  9  1  0
 19 14  1  0
 39 34  1  0
 40 31  1  0
  1 44  1  0
  1 45  1  0
  1 46  1  0
  2 47  1  0
  3 48  1  0
  3 49  1  0
  3 50  1  0
  4 51  1  0
  5 52  1  0
  8 53  1  0
  8 54  1  0
  9 55  1  6
 11 56  1  6
 12 57  1  6
 13 58  1  0
 13 59  1  0
 15 60  1  0
 16 61  1  0
 17 62  1  0
 18 63  1  0
 19 64  1  0
 20 65  1  0
 23 66  1  0
 24 67  1  0
 24 68  1  0
 26 69  1  0
 26 70  1  0
 28 71  1  0
 32 72  1  0
 33 73  1  0
 35 74  1  0
 36 75  1  0
 37 76  1  0
 38 77  1  0
 41 78  1  0
 42 79  1  0
 42 80  1  0
 42 81  1  0
 43 82  1  0
 43 83  1  0
 43 84  1  0
M  END
$$$$
