
     RDKit          3D

 80 83  0  0  0  0  0  0  0  0999 V2000
    6.5566    0.9317    5.0764 C   0  0  0  0  0  0  0  0  0  0  0  0
    6.5737    1.4517    3.7510 O   0  0  0  0  0  0  0  0  0  0  0  0
    5.4382    1.5848    2.9382 C   0  0  0  0  0  0  0  0  0  0  0  0
    5.5990    2.1116    1.6514 C   0  0  0  0  0  0  0  0  0  0  0  0
    4.4986    2.2625    0.8030 C   0  0  0  0  0  0  0  0  0  0  0  0
    3.2194    1.8840    1.2314 C   0  0  0  0  0  0  0  0  0  0  0  0
    1.8325    2.0630    0.1533 S   0  0  0  0  0  0  0  0  0  0  0  0
    0.5847    2.2331    0.9750 O   0  0  0  0  0  0  0  0  0  0  0  0
    2.0107    3.3033   -0.6777 O   0  0  0  0  0  0  0  0  0  0  0  0
    1.6665    0.6752   -0.9029 N   0  0  0  0  0  0  0  0  0  0  0  0
    2.9069    0.4748   -1.6792 C   0  0  0  0  0  0  0  0  0  0  0  0
    2.6145   -0.2565   -3.0067 C   0  0  0  0  0  0  0  0  0  0  0  0
    3.9236   -0.5754   -3.7378 C   0  0  0  0  0  0  0  0  0  0  0  0
    1.6940    0.5789   -3.9071 C   0  0  0  0  0  0  0  0  0  0  0  0
    1.2841   -0.5307   -0.1332 C   0  0  0  0  0  0  0  0  0  0  0  0
   -0.2343   -0.7410   -0.2248 C   0  0  1  0  0  0  0  0  0  0  0  0
   -0.5914   -1.0164   -1.5552 O   0  0  0  0  0  0  0  0  0  0  0  0
   -0.7455   -1.8461    0.7389 C   0  0  2  0  0  0  0  0  0  0  0  0
   -0.2088   -3.2774    0.4713 C   0  0  0  0  0  0  0  0  0  0  0  0
   -0.5768   -3.8640   -0.8726 C   0  0  0  0  0  0  0  0  0  0  0  0
   -1.8125   -4.5098   -1.0544 C   0  0  0  0  0  0  0  0  0  0  0  0
   -2.1513   -5.0502   -2.2986 C   0  0  0  0  0  0  0  0  0  0  0  0
   -1.2554   -4.9643   -3.3671 C   0  0  0  0  0  0  0  0  0  0  0  0
   -0.0147   -4.3473   -3.1902 C   0  0  0  0  0  0  0  0  0  0  0  0
    0.3284   -3.8073   -1.9473 C   0  0  0  0  0  0  0  0  0  0  0  0
   -2.2123   -1.8287    0.7681 N   0  0  0  0  0  0  0  0  0  0  0  0
   -2.9368   -0.9497    1.6353 C   0  0  0  0  0  0  0  0  0  0  0  0
   -2.4039   -0.5137    2.6927 O   0  0  0  0  0  0  0  0  0  0  0  0
   -4.2277   -0.5495    1.2746 O   0  0  0  0  0  0  0  0  0  0  0  0
   -4.9441    0.4906    1.9459 C   0  0  2  0  0  0  0  0  0  0  0  0
   -6.4198    0.3650    1.6248 C   0  0  0  0  0  0  0  0  0  0  0  0
   -6.6933    1.1481    0.4906 O   0  0  0  0  0  0  0  0  0  0  0  0
   -5.8279    2.2575    0.5497 C   0  0  2  0  0  0  0  0  0  0  0  0
   -5.4558    2.6163   -0.7711 O   0  0  0  0  0  0  0  0  0  0  0  0
   -4.5712    3.7225   -0.7400 C   0  0  0  0  0  0  0  0  0  0  0  0
   -3.2261    3.3643   -0.0732 C   0  0  0  0  0  0  0  0  0  0  0  0
   -3.2932    2.0041    0.6258 C   0  0  0  0  0  0  0  0  0  0  0  0
   -4.6108    1.8825    1.4181 C   0  0  2  0  0  0  0  0  0  0  0  0
    3.0514    1.3610    2.5209 C   0  0  0  0  0  0  0  0  0  0  0  0
    4.1516    1.2096    3.3701 C   0  0  0  0  0  0  0  0  0  0  0  0
    6.1845   -0.1146    5.0713 H   0  0  0  0  0  0  0  0  0  0  0  0
    5.9140    1.5630    5.7259 H   0  0  0  0  0  0  0  0  0  0  0  0
    7.5888    0.9398    5.4824 H   0  0  0  0  0  0  0  0  0  0  0  0
    6.5825    2.4055    1.3074 H   0  0  0  0  0  0  0  0  0  0  0  0
    4.6466    2.6735   -0.1871 H   0  0  0  0  0  0  0  0  0  0  0  0
    3.6552   -0.0914   -1.0785 H   0  0  0  0  0  0  0  0  0  0  0  0
    3.3723    1.4527   -1.9340 H   0  0  0  0  0  0  0  0  0  0  0  0
    2.1060   -1.2207   -2.7967 H   0  0  0  0  0  0  0  0  0  0  0  0
    4.5705   -1.2164   -3.1017 H   0  0  0  0  0  0  0  0  0  0  0  0
    3.7130   -1.1266   -4.6792 H   0  0  0  0  0  0  0  0  0  0  0  0
    4.4738    0.3584   -3.9837 H   0  0  0  0  0  0  0  0  0  0  0  0
    1.4864    0.0340   -4.8527 H   0  0  0  0  0  0  0  0  0  0  0  0
    0.7230    0.7660   -3.4020 H   0  0  0  0  0  0  0  0  0  0  0  0
    2.1646    1.5554   -4.1517 H   0  0  0  0  0  0  0  0  0  0  0  0
    1.7895   -1.4384   -0.5228 H   0  0  0  0  0  0  0  0  0  0  0  0
    1.5917   -0.4502    0.9308 H   0  0  0  0  0  0  0  0  0  0  0  0
   -0.7123    0.2151    0.0902 H   0  0  0  0  0  0  0  0  0  0  0  0
   -1.5330   -0.7250   -1.6727 H   0  0  0  0  0  0  0  0  0  0  0  0
   -0.3739   -1.5836    1.7547 H   0  0  0  0  0  0  0  0  0  0  0  0
    0.8952   -3.2881    0.5959 H   0  0  0  0  0  0  0  0  0  0  0  0
   -0.5974   -3.9481    1.2689 H   0  0  0  0  0  0  0  0  0  0  0  0
   -2.5123   -4.5971   -0.2327 H   0  0  0  0  0  0  0  0  0  0  0  0
   -3.1076   -5.5389   -2.4333 H   0  0  0  0  0  0  0  0  0  0  0  0
   -1.5191   -5.3833   -4.3296 H   0  0  0  0  0  0  0  0  0  0  0  0
    0.6838   -4.2910   -4.0150 H   0  0  0  0  0  0  0  0  0  0  0  0
    1.2998   -3.3489   -1.8246 H   0  0  0  0  0  0  0  0  0  0  0  0
   -2.7329   -2.1922   -0.0599 H   0  0  0  0  0  0  0  0  0  0  0  0
   -4.7911    0.4196    3.0465 H   0  0  0  0  0  0  0  0  0  0  0  0
   -7.0320    0.7320    2.4791 H   0  0  0  0  0  0  0  0  0  0  0  0
   -6.6987   -0.6924    1.4276 H   0  0  0  0  0  0  0  0  0  0  0  0
   -6.3884    3.0978    1.0236 H   0  0  0  0  0  0  0  0  0  0  0  0
   -5.0426    4.5899   -0.2232 H   0  0  0  0  0  0  0  0  0  0  0  0
   -4.3808    4.0463   -1.7851 H   0  0  0  0  0  0  0  0  0  0  0  0
   -2.4167    3.3391   -0.8354 H   0  0  0  0  0  0  0  0  0  0  0  0
   -2.9643    4.1483    0.6707 H   0  0  0  0  0  0  0  0  0  0  0  0
   -3.2350    1.2165   -0.1574 H   0  0  0  0  0  0  0  0  0  0  0  0
   -2.4229    1.8927    1.3074 H   0  0  0  0  0  0  0  0  0  0  0  0
   -4.5619    2.5858    2.2809 H   0  0  0  0  0  0  0  0  0  0  0  0
    2.0700    1.0667    2.8701 H   0  0  0  0  0  0  0  0  0  0  0  0
    3.9911    0.8005    4.3582 H   0  0  0  0  0  0  0  0  0  0  0  0
  1  2  1  0
  2  3  1  0
  3  4  2  0
  4  5  1  0
  5  6  2  0
  6  7  1  0
  7  8  2  0
  7  9  2  0
  7 10  1  0
 10 11  1  0
 11 12  1  0
 12 13  1  0
 12 14  1  0
 10 15  1  0
 15 16  1  0
 16 17  1  0
 16 18  1  0
 18 19  1  0
 19 20  1  0
 20 21  2  0
 21 22  1  0
 22 23  2  0
 23 24  1  0
 24 25  2  0
 18 26  1  0
 26 27  1  0
 27 28  2  0
 27 29  1  0
 29 30  1  0
 30 31  1  0
 31 32  1  0
 32 33  1  0
 33 34  1  0
 34 35  1  0
 35 36  1  0
 36 37  1  0
 37 38  1  0
  6 39  1  0
 39 40  2  0
 25 20  1  0
 38 30  1  0
 38 33  1  0
 40  3  1  0
  1 41  1  0
  1 42  1  0
  1 43  1  0
  4 44  1  0
  5 45  1  0
 11 46  1  0
 11 47  1  0
 12 48  1  0
 13 49  1  0
 13 50  1  0
 13 51  1  0
 14 52  1  0
 14 53  1  0
 14 54  1  0
 15 55  1  0
 15 56  1  0
 16 57  1  1
 17 58  1  0
 18 59  1  1
 19 60  1  0
 19 61  1  0
 21 62  1  0
 22 63  1  0
 23 64  1  0
 24 65  1  0
 25 66  1  0
 26 67  1  0
 30 68  1  1
 31 69  1  0
 31 70  1  0
 33 71  1  1
 35 72  1  0
 35 73  1  0
 36 74  1  0
 36 75  1  0
 37 76  1  0
 37 77  1  0
 38 78  1  1
 39 79  1  0
 40 80  1  0
M  END
$$$$
