
     RDKit          3D

 79 80  0  0  0  0  0  0  0  0999 V2000
    8.6954   -1.7978    1.6166 C   0  0  0  0  0  0  0  0  0  0  0  0
    8.5941   -0.6955    0.5456 C   0  0  0  0  0  0  0  0  0  0  0  0
    9.7284    0.3222    0.7451 C   0  0  0  0  0  0  0  0  0  0  0  0
    7.2018    0.0124    0.4890 C   0  0  2  0  0  0  0  0  0  0  0  0
    6.6334    0.3814    1.8675 C   0  0  0  0  0  0  0  0  0  0  0  0
    6.1761   -0.7839   -0.2869 C   0  0  0  0  0  0  0  0  0  0  0  0
    6.1145   -2.0361   -0.1528 O   0  0  0  0  0  0  0  0  0  0  0  0
    5.2234   -0.0973   -1.1160 N   0  0  0  0  0  0  0  0  0  0  0  0
    4.2085   -0.7616   -1.8881 C   0  0  0  0  0  0  0  0  0  0  0  0
    4.2225   -2.0160   -2.0186 O   0  0  0  0  0  0  0  0  0  0  0  0
    3.1076    0.0302   -2.5446 C   0  0  2  0  0  0  0  0  0  0  0  0
    3.6797    1.0931   -3.2623 O   0  0  0  0  0  0  0  0  0  0  0  0
    2.0727    0.5715   -1.5219 C   0  0  2  0  0  0  0  0  0  0  0  0
    2.6965    1.3772   -0.5528 O   0  0  0  0  0  0  0  0  0  0  0  0
    1.2633   -0.5616   -0.8332 C   0  0  1  0  0  0  0  0  0  0  0  0
    2.0922   -1.3561   -0.0178 O   0  0  0  0  0  0  0  0  0  0  0  0
    0.0697   -0.0066   -0.0204 C   0  0  1  0  0  0  0  0  0  0  0  0
   -0.8128    0.7054   -0.8941 O   0  0  0  0  0  0  0  0  0  0  0  0
   -1.9632    1.4052   -0.4953 C   0  0  0  0  0  0  0  0  0  0  0  0
   -2.8451    1.8453   -1.4862 C   0  0  0  0  0  0  0  0  0  0  0  0
   -4.0276    2.5059   -1.1439 C   0  0  0  0  0  0  0  0  0  0  0  0
   -4.3427    2.7568    0.2030 C   0  0  0  0  0  0  0  0  0  0  0  0
   -5.6183    3.4337    0.5496 C   0  0  0  0  0  0  0  0  0  0  0  0
   -5.7473    4.2216    1.7087 C   0  0  0  0  0  0  0  0  0  0  0  0
   -6.9687    4.8375    1.9899 C   0  0  0  0  0  0  0  0  0  0  0  0
   -8.0477    4.6731    1.1216 C   0  0  0  0  0  0  0  0  0  0  0  0
   -7.8868    3.8946   -0.0249 C   0  0  0  0  0  0  0  0  0  0  0  0
   -6.6909    3.3017   -0.2826 N   0  0  0  0  0  0  0  0  0  0  0  0
   -3.4463    2.3261    1.1992 C   0  0  0  0  0  0  0  0  0  0  0  0
   -2.2658    1.6617    0.8542 C   0  0  0  0  0  0  0  0  0  0  0  0
   -0.6732   -1.1354    0.6506 C   0  0  0  0  0  0  0  0  0  0  0  0
   -0.3959   -1.4311    1.8445 O   0  0  0  0  0  0  0  0  0  0  0  0
   -1.6704   -1.8743   -0.0732 N   0  0  0  0  0  0  0  0  0  0  0  0
   -2.6535   -2.7117    0.5563 C   0  0  0  0  0  0  0  0  0  0  0  0
   -2.5939   -2.9494    1.7942 O   0  0  0  0  0  0  0  0  0  0  0  0
   -3.8097   -3.2551   -0.2524 C   0  0  1  0  0  0  0  0  0  0  0  0
   -3.9192   -4.7718   -0.0225 C   0  0  0  0  0  0  0  0  0  0  0  0
   -5.1299   -2.5011    0.0921 C   0  0  0  0  0  0  0  0  0  0  0  0
   -6.3200   -3.0229   -0.7312 C   0  0  0  0  0  0  0  0  0  0  0  0
   -4.9865   -0.9853   -0.1391 C   0  0  0  0  0  0  0  0  0  0  0  0
    9.6553   -2.3455    1.5029 H   0  0  0  0  0  0  0  0  0  0  0  0
    7.8748   -2.5355    1.5176 H   0  0  0  0  0  0  0  0  0  0  0  0
    8.6655   -1.3642    2.6387 H   0  0  0  0  0  0  0  0  0  0  0  0
    8.7747   -1.1751   -0.4429 H   0  0  0  0  0  0  0  0  0  0  0  0
    9.7141    1.0818   -0.0654 H   0  0  0  0  0  0  0  0  0  0  0  0
   10.7134   -0.1908    0.7107 H   0  0  0  0  0  0  0  0  0  0  0  0
    9.6335    0.8384    1.7234 H   0  0  0  0  0  0  0  0  0  0  0  0
    7.3418    0.9680   -0.0636 H   0  0  0  0  0  0  0  0  0  0  0  0
    7.3700    0.9717    2.4505 H   0  0  0  0  0  0  0  0  0  0  0  0
    6.3584   -0.5284    2.4422 H   0  0  0  0  0  0  0  0  0  0  0  0
    5.7195    1.0018    1.7445 H   0  0  0  0  0  0  0  0  0  0  0  0
    5.2514    0.9467   -1.1345 H   0  0  0  0  0  0  0  0  0  0  0  0
    2.5777   -0.6407   -3.2621 H   0  0  0  0  0  0  0  0  0  0  0  0
    2.9925    1.4121   -3.9044 H   0  0  0  0  0  0  0  0  0  0  0  0
    1.3464    1.1914   -2.0986 H   0  0  0  0  0  0  0  0  0  0  0  0
    2.8869    2.2524   -0.9811 H   0  0  0  0  0  0  0  0  0  0  0  0
    0.8482   -1.2171   -1.6308 H   0  0  0  0  0  0  0  0  0  0  0  0
    2.4141   -0.7903    0.7318 H   0  0  0  0  0  0  0  0  0  0  0  0
    0.4590    0.6928    0.7524 H   0  0  0  0  0  0  0  0  0  0  0  0
   -2.6222    1.6558   -2.5286 H   0  0  0  0  0  0  0  0  0  0  0  0
   -4.6944    2.8248   -1.9353 H   0  0  0  0  0  0  0  0  0  0  0  0
   -4.9133    4.3822    2.3786 H   0  0  0  0  0  0  0  0  0  0  0  0
   -7.0764    5.4473    2.8776 H   0  0  0  0  0  0  0  0  0  0  0  0
   -8.9971    5.1484    1.3318 H   0  0  0  0  0  0  0  0  0  0  0  0
   -8.7124    3.7614   -0.7111 H   0  0  0  0  0  0  0  0  0  0  0  0
   -3.6671    2.4708    2.2482 H   0  0  0  0  0  0  0  0  0  0  0  0
   -1.6051    1.3398    1.6465 H   0  0  0  0  0  0  0  0  0  0  0  0
   -1.7502   -1.7096   -1.1018 H   0  0  0  0  0  0  0  0  0  0  0  0
   -3.5910   -3.1051   -1.3331 H   0  0  0  0  0  0  0  0  0  0  0  0
   -4.5977   -5.2334   -0.7696 H   0  0  0  0  0  0  0  0  0  0  0  0
   -2.9243   -5.2522   -0.1447 H   0  0  0  0  0  0  0  0  0  0  0  0
   -4.2987   -4.9899    0.9989 H   0  0  0  0  0  0  0  0  0  0  0  0
   -5.3663   -2.6590    1.1683 H   0  0  0  0  0  0  0  0  0  0  0  0
   -7.2255   -2.4088   -0.5378 H   0  0  0  0  0  0  0  0  0  0  0  0
   -6.5703   -4.0648   -0.4436 H   0  0  0  0  0  0  0  0  0  0  0  0
   -6.0907   -2.9868   -1.8179 H   0  0  0  0  0  0  0  0  0  0  0  0
   -4.2287   -0.5556    0.5476 H   0  0  0  0  0  0  0  0  0  0  0  0
   -4.6843   -0.7754   -1.1876 H   0  0  0  0  0  0  0  0  0  0  0  0
   -5.9462   -0.4652    0.0679 H   0  0  0  0  0  0  0  0  0  0  0  0
  1  2  1  0
  2  3  1  0
  2  4  1  0
  4  5  1  0
  4  6  1  0
  6  7  2  0
  6  8  1  0
  8  9  1  0
  9 10  2  0
  9 11  1  0
 11 12  1  0
 11 13  1  0
 13 14  1  0
 13 15  1  0
 15 16  1  0
 15 17  1  0
 17 18  1  0
 18 19  1  0
 19 20  2  0
 20 21  1  0
 21 22  2  0
 22 23  1  0
 23 24  2  0
 24 25  1  0
 25 26  2  0
 26 27  1  0
 27 28  2  0
 22 29  1  0
 29 30  2  0
 17 31  1  0
 31 32  2  0
 31 33  1  0
 33 34  1  0
 34 35  2  0
 34 36  1  0
 36 37  1  0
 36 38  1  0
 38 39  1  0
 38 40  1  0
 28 23  1  0
 30 19  1  0
  1 41  1  0
  1 42  1  0
  1 43  1  0
  2 44  1  0
  3 45  1  0
  3 46  1  0
  3 47  1  0
  4 48  1  6
  5 49  1  0
  5 50  1  0
  5 51  1  0
  8 52  1  0
 11 53  1  6
 12 54  1  0
 13 55  1  6
 14 56  1  0
 15 57  1  6
 16 58  1  0
 17 59  1  1
 20 60  1  0
 21 61  1  0
 24 62  1  0
 25 63  1  0
 26 64  1  0
 27 65  1  0
 29 66  1  0
 30 67  1  0
 33 68  1  0
 36 69  1  6
 37 70  1  0
 37 71  1  0
 37 72  1  0
 38 73  1  0
 39 74  1  0
 39 75  1  0
 39 76  1  0
 40 77  1  0
 40 78  1  0
 40 79  1  0
M  END
$$$$
