
     RDKit          3D

 71 74  0  0  0  0  0  0  0  0999 V2000
    0.3318    1.2886   -2.0220 C   0  0  0  0  0  0  0  0  0  0  0  0
    0.1189    0.4247   -0.7637 C   0  0  0  0  0  0  0  0  0  0  0  0
    0.2130   -1.0652   -1.1448 C   0  0  0  0  0  0  0  0  0  0  0  0
    1.0595    0.8097    0.4487 C   0  0  0  0  0  0  0  0  0  0  0  0
    2.5445    0.9331   -0.0088 C   0  0  0  0  0  0  0  0  0  0  0  0
    3.5659    0.8822    1.1414 C   0  0  0  0  0  0  0  0  0  0  0  0
    4.9561    1.0026    0.6039 C   0  0  0  0  0  0  0  0  0  0  0  0
    5.6872   -0.0627    0.1924 N   0  0  0  0  0  0  0  0  0  0  0  0
    6.8837    0.3355   -0.3097 C   0  0  0  0  0  0  0  0  0  0  0  0
    7.8579   -0.5311   -0.8082 C   0  0  0  0  0  0  0  0  0  0  0  0
    9.0545    0.0133   -1.3063 C   0  0  0  0  0  0  0  0  0  0  0  0
    9.2611    1.4076   -1.3021 C   0  0  0  0  0  0  0  0  0  0  0  0
    8.2731    2.2696   -0.8000 C   0  0  0  0  0  0  0  0  0  0  0  0
    7.0979    1.7050   -0.3108 C   0  0  0  0  0  0  0  0  0  0  0  0
    5.7537    2.4738    0.3351 S   0  0  0  0  0  0  0  0  0  0  0  0
    0.5864    2.1434    1.0957 C   0  0  0  0  0  0  0  0  0  0  0  0
   -0.7025    1.9466    1.8433 C   0  0  0  0  0  0  0  0  0  0  0  0
   -1.4200    2.9474    2.1072 O   0  0  0  0  0  0  0  0  0  0  0  0
   -1.0654    0.6085    2.3603 C   0  0  0  0  0  0  0  0  0  0  0  0
   -2.7183    0.3231    3.0366 S   0  0  0  0  0  0  0  0  0  0  0  0
   -3.4812    0.1023    1.4054 C   0  0  0  0  0  0  0  0  0  0  0  0
   -3.7175    1.2897    0.6978 C   0  0  0  0  0  0  0  0  0  0  0  0
   -3.9852    1.2882   -0.6741 C   0  0  0  0  0  0  0  0  0  0  0  0
   -4.1488    2.6017   -1.3946 C   0  0  0  0  0  0  0  0  0  0  0  0
   -4.0565    0.0597   -1.3558 C   0  0  0  0  0  0  0  0  0  0  0  0
   -4.2551   -0.0099   -2.8530 C   0  0  0  0  0  0  0  0  0  0  0  0
   -3.0466    0.2469   -3.5132 O   0  0  0  0  0  0  0  0  0  0  0  0
   -3.9151   -1.1335   -0.6348 C   0  0  0  0  0  0  0  0  0  0  0  0
   -3.7385   -1.1551    0.7704 C   0  0  0  0  0  0  0  0  0  0  0  0
   -3.8764   -2.5319    1.4834 C   0  0  0  0  0  0  0  0  0  0  0  0
   -4.0488   -2.4427    3.0186 C   0  0  0  0  0  0  0  0  0  0  0  0
   -5.1448   -3.2688    0.9661 C   0  0  0  0  0  0  0  0  0  0  0  0
   -2.6424   -3.3967    1.1632 C   0  0  0  0  0  0  0  0  0  0  0  0
   -0.1530   -0.3753    2.2746 C   0  0  0  0  0  0  0  0  0  0  0  0
   -0.2663   -1.5543    3.0079 O   0  0  0  0  0  0  0  0  0  0  0  0
    0.9709   -0.2146    1.4514 O   0  0  0  0  0  0  0  0  0  0  0  0
   -0.4388    1.0429   -2.7829 H   0  0  0  0  0  0  0  0  0  0  0  0
    1.3283    1.1018   -2.4741 H   0  0  0  0  0  0  0  0  0  0  0  0
    0.2334    2.3681   -1.7956 H   0  0  0  0  0  0  0  0  0  0  0  0
   -0.9366    0.5843   -0.4546 H   0  0  0  0  0  0  0  0  0  0  0  0
   -0.0522   -1.7129   -0.2838 H   0  0  0  0  0  0  0  0  0  0  0  0
    1.2295   -1.3322   -1.4984 H   0  0  0  0  0  0  0  0  0  0  0  0
   -0.5082   -1.2961   -1.9575 H   0  0  0  0  0  0  0  0  0  0  0  0
    2.6817    1.8847   -0.5692 H   0  0  0  0  0  0  0  0  0  0  0  0
    2.7917    0.1036   -0.7038 H   0  0  0  0  0  0  0  0  0  0  0  0
    3.3966    1.7056    1.8636 H   0  0  0  0  0  0  0  0  0  0  0  0
    3.4803   -0.0810    1.6883 H   0  0  0  0  0  0  0  0  0  0  0  0
    7.6973   -1.6016   -0.8125 H   0  0  0  0  0  0  0  0  0  0  0  0
    9.8218   -0.6427   -1.6965 H   0  0  0  0  0  0  0  0  0  0  0  0
   10.1856    1.8162   -1.6889 H   0  0  0  0  0  0  0  0  0  0  0  0
    8.4214    3.3416   -0.7945 H   0  0  0  0  0  0  0  0  0  0  0  0
    0.4661    2.9450    0.3394 H   0  0  0  0  0  0  0  0  0  0  0  0
    1.3285    2.5061    1.8340 H   0  0  0  0  0  0  0  0  0  0  0  0
   -3.6337    2.2353    1.2154 H   0  0  0  0  0  0  0  0  0  0  0  0
   -5.1857    2.6914   -1.7801 H   0  0  0  0  0  0  0  0  0  0  0  0
   -3.4316    2.6638   -2.2397 H   0  0  0  0  0  0  0  0  0  0  0  0
   -3.9553    3.4662   -0.7245 H   0  0  0  0  0  0  0  0  0  0  0  0
   -4.6564   -1.0026   -3.1611 H   0  0  0  0  0  0  0  0  0  0  0  0
   -5.0091    0.7364   -3.1772 H   0  0  0  0  0  0  0  0  0  0  0  0
   -2.4957   -0.5742   -3.4234 H   0  0  0  0  0  0  0  0  0  0  0  0
   -3.9623   -2.0598   -1.1886 H   0  0  0  0  0  0  0  0  0  0  0  0
   -4.3921   -3.4104    3.4447 H   0  0  0  0  0  0  0  0  0  0  0  0
   -4.8035   -1.6728    3.2877 H   0  0  0  0  0  0  0  0  0  0  0  0
   -3.0920   -2.2417    3.5291 H   0  0  0  0  0  0  0  0  0  0  0  0
   -6.0398   -2.6184    1.0746 H   0  0  0  0  0  0  0  0  0  0  0  0
   -5.0591   -3.5781   -0.0946 H   0  0  0  0  0  0  0  0  0  0  0  0
   -5.3274   -4.2074    1.5333 H   0  0  0  0  0  0  0  0  0  0  0  0
   -1.7143   -2.8793    1.4705 H   0  0  0  0  0  0  0  0  0  0  0  0
   -2.6955   -4.3719    1.6941 H   0  0  0  0  0  0  0  0  0  0  0  0
   -2.5692   -3.6018    0.0740 H   0  0  0  0  0  0  0  0  0  0  0  0
   -0.9375   -1.6693    3.7546 H   0  0  0  0  0  0  0  0  0  0  0  0
  1  2  1  0
  2  3  1  0
  2  4  1  0
  4  5  1  0
  5  6  1  0
  6  7  1  0
  7  8  2  0
  8  9  1  0
  9 10  2  0
 10 11  1  0
 11 12  2  0
 12 13  1  0
 13 14  2  0
 14 15  1  0
  4 16  1  0
 16 17  1  0
 17 18  2  0
 17 19  1  0
 19 20  1  0
 20 21  1  0
 21 22  2  0
 22 23  1  0
 23 24  1  0
 23 25  2  0
 25 26  1  0
 26 27  1  0
 25 28  1  0
 28 29  2  0
 29 30  1  0
 30 31  1  0
 30 32  1  0
 30 33  1  0
 19 34  2  0
 34 35  1  0
 34 36  1  0
 14  9  1  0
 15  7  1  0
 29 21  1  0
 36  4  1  0
  1 37  1  0
  1 38  1  0
  1 39  1  0
  2 40  1  0
  3 41  1  0
  3 42  1  0
  3 43  1  0
  5 44  1  0
  5 45  1  0
  6 46  1  0
  6 47  1  0
 10 48  1  0
 11 49  1  0
 12 50  1  0
 13 51  1  0
 16 52  1  0
 16 53  1  0
 22 54  1  0
 24 55  1  0
 24 56  1  0
 24 57  1  0
 26 58  1  0
 26 59  1  0
 27 60  1  0
 28 61  1  0
 31 62  1  0
 31 63  1  0
 31 64  1  0
 32 65  1  0
 32 66  1  0
 32 67  1  0
 33 68  1  0
 33 69  1  0
 33 70  1  0
 35 71  1  0
M  END
$$$$
