
     RDKit          3D

 69 74  0  0  0  0  0  0  0  0999 V2000
   -3.9115    3.3431   -1.5007 O   0  0  0  0  0  0  0  0  0  0  0  0
   -3.8695    1.9941   -1.1385 C   0  0  0  0  0  0  0  0  0  0  0  0
   -4.8879    1.5396   -0.4203 O   0  0  0  0  0  0  0  0  0  0  0  0
   -5.0256    0.2768   -0.0374 C   0  0  0  0  0  0  0  0  0  0  0  0
   -6.1983   -0.0471    0.8505 C   0  0  0  0  0  0  0  0  0  0  0  0
   -5.8626    0.1492    2.3364 C   0  0  0  0  0  0  0  0  0  0  0  0
   -4.5581   -0.5248    2.8005 C   0  0  0  0  0  0  0  0  0  0  0  0
   -4.5131   -2.0434    2.5331 C   0  0  0  0  0  0  0  0  0  0  0  0
   -3.5889   -2.4328    1.3645 C   0  0  0  0  0  0  0  0  0  0  0  0
   -4.1826   -2.1486   -0.0235 C   0  0  0  0  0  0  0  0  0  0  0  0
   -4.0651   -0.6846   -0.4183 C   0  0  0  0  0  0  0  0  0  0  0  0
   -2.9432   -0.2391   -1.1415 C   0  0  0  0  0  0  0  0  0  0  0  0
   -2.0523   -1.0671   -1.4749 O   0  0  0  0  0  0  0  0  0  0  0  0
   -2.8105    1.1218   -1.5006 C   0  0  0  0  0  0  0  0  0  0  0  0
   -1.5345    1.6181   -2.1946 C   0  0  0  0  0  0  0  0  0  0  0  0
   -1.3377    1.1025   -3.6513 C   0  0  0  0  0  0  0  0  0  0  0  0
   -2.4331    0.3078   -4.3642 C   0  0  0  0  0  0  0  0  0  0  0  0
   -2.2637    1.7837   -4.6571 C   0  0  0  0  0  0  0  0  0  0  0  0
   -0.3254    1.3562   -1.3035 C   0  0  0  0  0  0  0  0  0  0  0  0
   -0.1038    2.1991   -0.2003 C   0  0  0  0  0  0  0  0  0  0  0  0
    0.9692    1.9743    0.6623 C   0  0  0  0  0  0  0  0  0  0  0  0
    1.8300    0.8976    0.4486 C   0  0  0  0  0  0  0  0  0  0  0  0
    1.6200    0.0242   -0.6333 C   0  0  0  0  0  0  0  0  0  0  0  0
    2.4857   -1.0988   -0.8828 N   0  0  0  0  0  0  0  0  0  0  0  0
    3.6904   -1.6665    0.2323 S   0  0  0  0  0  0  0  0  0  0  0  0
    4.1486   -3.0263   -0.2144 O   0  0  0  0  0  0  0  0  0  0  0  0
    3.0679   -1.7824    1.5960 O   0  0  0  0  0  0  0  0  0  0  0  0
    5.0897   -0.5758    0.2781 C   0  0  0  0  0  0  0  0  0  0  0  0
    5.1388    0.4883   -0.6374 C   0  0  0  0  0  0  0  0  0  0  0  0
    6.1999    1.3919   -0.6291 C   0  0  0  0  0  0  0  0  0  0  0  0
    7.2385    1.2481    0.2868 C   0  0  0  0  0  0  0  0  0  0  0  0
    7.2315    0.1860    1.2005 C   0  0  0  0  0  0  0  0  0  0  0  0
    8.2904    0.0415    2.1109 C   0  0  0  0  0  0  0  0  0  0  0  0
    8.3003   -1.0195    3.0159 C   0  0  0  0  0  0  0  0  0  0  0  0
    7.2592   -1.9465    3.0184 C   0  0  0  0  0  0  0  0  0  0  0  0
    6.1965   -1.8172    2.1206 C   0  0  0  0  0  0  0  0  0  0  0  0
    6.1568   -0.7461    1.2014 C   0  0  0  0  0  0  0  0  0  0  0  0
    0.5439    0.2628   -1.5032 C   0  0  0  0  0  0  0  0  0  0  0  0
   -3.3123    3.7810   -2.1839 H   0  0  0  0  0  0  0  0  0  0  0  0
   -6.5988   -1.0627    0.6751 H   0  0  0  0  0  0  0  0  0  0  0  0
   -7.0336    0.6398    0.5933 H   0  0  0  0  0  0  0  0  0  0  0  0
   -5.7816    1.2391    2.5423 H   0  0  0  0  0  0  0  0  0  0  0  0
   -6.7087   -0.2363    2.9461 H   0  0  0  0  0  0  0  0  0  0  0  0
   -3.6814   -0.0084    2.3523 H   0  0  0  0  0  0  0  0  0  0  0  0
   -4.4770   -0.3594    3.8973 H   0  0  0  0  0  0  0  0  0  0  0  0
   -5.5313   -2.4629    2.3811 H   0  0  0  0  0  0  0  0  0  0  0  0
   -4.1110   -2.5370    3.4451 H   0  0  0  0  0  0  0  0  0  0  0  0
   -3.4103   -3.5283    1.4336 H   0  0  0  0  0  0  0  0  0  0  0  0
   -2.5957   -1.9432    1.4705 H   0  0  0  0  0  0  0  0  0  0  0  0
   -3.6380   -2.7754   -0.7621 H   0  0  0  0  0  0  0  0  0  0  0  0
   -5.2248   -2.5169   -0.0896 H   0  0  0  0  0  0  0  0  0  0  0  0
   -1.5451    2.7174   -2.2933 H   0  0  0  0  0  0  0  0  0  0  0  0
   -0.3084    1.0363   -4.0654 H   0  0  0  0  0  0  0  0  0  0  0  0
   -2.0686   -0.3467   -5.1836 H   0  0  0  0  0  0  0  0  0  0  0  0
   -3.3786    0.0898   -3.8282 H   0  0  0  0  0  0  0  0  0  0  0  0
   -3.0854    2.4067   -4.2444 H   0  0  0  0  0  0  0  0  0  0  0  0
   -1.8111    1.9886   -5.6507 H   0  0  0  0  0  0  0  0  0  0  0  0
   -0.7671    3.0336   -0.0076 H   0  0  0  0  0  0  0  0  0  0  0  0
    1.1334    2.6376    1.5018 H   0  0  0  0  0  0  0  0  0  0  0  0
    2.6577    0.7614    1.1293 H   0  0  0  0  0  0  0  0  0  0  0  0
    2.3548   -1.6550   -1.7573 H   0  0  0  0  0  0  0  0  0  0  0  0
    4.3525    0.6283   -1.3659 H   0  0  0  0  0  0  0  0  0  0  0  0
    6.2166    2.2097   -1.3381 H   0  0  0  0  0  0  0  0  0  0  0  0
    8.0524    1.9635    0.2760 H   0  0  0  0  0  0  0  0  0  0  0  0
    9.1120    0.7481    2.1202 H   0  0  0  0  0  0  0  0  0  0  0  0
    9.1203   -1.1265    3.7143 H   0  0  0  0  0  0  0  0  0  0  0  0
    7.2762   -2.7722    3.7182 H   0  0  0  0  0  0  0  0  0  0  0  0
    5.4221   -2.5686    2.1541 H   0  0  0  0  0  0  0  0  0  0  0  0
    0.3812   -0.4213   -2.3255 H   0  0  0  0  0  0  0  0  0  0  0  0
  1  2  1  0
  2  3  1  0
  3  4  1  0
  4  5  1  0
  5  6  1  0
  6  7  1  0
  7  8  1  0
  8  9  1  0
  9 10  1  0
 10 11  1  0
 11 12  1  0
 12 13  2  0
 12 14  1  0
 14 15  1  0
 15 16  1  0
 16 17  1  0
 17 18  1  0
 15 19  1  0
 19 20  2  0
 20 21  1  0
 21 22  2  0
 22 23  1  0
 23 24  1  0
 24 25  1  0
 25 26  2  0
 25 27  2  0
 25 28  1  0
 28 29  2  0
 29 30  1  0
 30 31  2  0
 31 32  1  0
 32 33  2  0
 33 34  1  0
 34 35  2  0
 35 36  1  0
 36 37  2  0
 23 38  2  0
 11  4  2  0
 14  2  2  0
 18 16  1  0
 37 28  1  0
 37 32  1  0
 38 19  1  0
  1 39  1  0
  5 40  1  0
  5 41  1  0
  6 42  1  0
  6 43  1  0
  7 44  1  0
  7 45  1  0
  8 46  1  0
  8 47  1  0
  9 48  1  0
  9 49  1  0
 10 50  1  0
 10 51  1  0
 15 52  1  0
 16 53  1  0
 17 54  1  0
 17 55  1  0
 18 56  1  0
 18 57  1  0
 20 58  1  0
 21 59  1  0
 22 60  1  0
 24 61  1  0
 29 62  1  0
 30 63  1  0
 31 64  1  0
 33 65  1  0
 34 66  1  0
 35 67  1  0
 36 68  1  0
 38 69  1  0
M  END
$$$$
