
     RDKit          3D

 71 74  0  0  0  0  0  0  0  0999 V2000
    1.3584    0.2854   -2.4067 C   0  0  0  0  0  0  0  0  0  0  0  0
    1.1991   -0.7566   -1.2817 C   0  0  0  0  0  0  0  0  0  0  0  0
   -0.2458   -1.2856   -1.3063 C   0  0  0  0  0  0  0  0  0  0  0  0
    1.6490   -0.1988    0.1261 C   0  0  0  0  0  0  0  0  0  0  0  0
    3.1251    0.3063    0.0919 C   0  0  0  0  0  0  0  0  0  0  0  0
    4.1680   -0.7462   -0.3254 C   0  0  0  0  0  0  0  0  0  0  0  0
    5.5491   -0.1951   -0.1704 C   0  0  0  0  0  0  0  0  0  0  0  0
    6.1692    0.5330   -1.1316 N   0  0  0  0  0  0  0  0  0  0  0  0
    7.3846    0.9620   -0.7061 C   0  0  0  0  0  0  0  0  0  0  0  0
    8.2630    1.7299   -1.4724 C   0  0  0  0  0  0  0  0  0  0  0  0
    9.4921    2.1140   -0.9083 C   0  0  0  0  0  0  0  0  0  0  0  0
    9.8256    1.7305    0.4063 C   0  0  0  0  0  0  0  0  0  0  0  0
    8.9331    0.9597    1.1684 C   0  0  0  0  0  0  0  0  0  0  0  0
    7.7233    0.5908    0.5859 C   0  0  0  0  0  0  0  0  0  0  0  0
    6.4713   -0.3094    1.2470 S   0  0  0  0  0  0  0  0  0  0  0  0
    1.5274   -1.2832    1.2437 C   0  0  0  0  0  0  0  0  0  0  0  0
    0.1641   -1.3428    1.8679 C   0  0  0  0  0  0  0  0  0  0  0  0
   -0.1753   -2.3819    2.4949 O   0  0  0  0  0  0  0  0  0  0  0  0
   -0.7325   -0.1753    1.8384 C   0  0  0  0  0  0  0  0  0  0  0  0
   -2.2966   -0.2392    2.7505 S   0  0  0  0  0  0  0  0  0  0  0  0
   -3.3365   -0.6212    1.3186 C   0  0  0  0  0  0  0  0  0  0  0  0
   -3.0588   -1.8262    0.6588 C   0  0  0  0  0  0  0  0  0  0  0  0
   -3.6445   -2.1431   -0.5687 C   0  0  0  0  0  0  0  0  0  0  0  0
   -3.2545   -3.4241   -1.2613 C   0  0  0  0  0  0  0  0  0  0  0  0
   -4.5718   -1.2499   -1.1358 C   0  0  0  0  0  0  0  0  0  0  0  0
   -5.1767   -1.4985   -2.4970 C   0  0  0  0  0  0  0  0  0  0  0  0
   -4.2602   -1.1238   -3.4867 O   0  0  0  0  0  0  0  0  0  0  0  0
   -4.9232   -0.0849   -0.4366 C   0  0  0  0  0  0  0  0  0  0  0  0
   -4.3838    0.2286    0.8388 C   0  0  0  0  0  0  0  0  0  0  0  0
   -5.0222    1.3660    1.7005 C   0  0  0  0  0  0  0  0  0  0  0  0
   -4.0298    2.5220    1.9376 C   0  0  0  0  0  0  0  0  0  0  0  0
   -5.5029    0.7959    3.0565 C   0  0  0  0  0  0  0  0  0  0  0  0
   -6.2769    1.9968    1.0345 C   0  0  0  0  0  0  0  0  0  0  0  0
   -0.3424    0.9260    1.1881 C   0  0  0  0  0  0  0  0  0  0  0  0
   -1.1137    2.0785    1.2318 O   0  0  0  0  0  0  0  0  0  0  0  0
    0.8540    0.9500    0.4586 O   0  0  0  0  0  0  0  0  0  0  0  0
    2.4272    0.5167   -2.5892 H   0  0  0  0  0  0  0  0  0  0  0  0
    0.8163    1.2220   -2.1570 H   0  0  0  0  0  0  0  0  0  0  0  0
    0.9554   -0.1089   -3.3641 H   0  0  0  0  0  0  0  0  0  0  0  0
    1.8400   -1.6256   -1.5430 H   0  0  0  0  0  0  0  0  0  0  0  0
   -0.9721   -0.4835   -1.0621 H   0  0  0  0  0  0  0  0  0  0  0  0
   -0.3678   -2.1359   -0.6071 H   0  0  0  0  0  0  0  0  0  0  0  0
   -0.4956   -1.6751   -2.3164 H   0  0  0  0  0  0  0  0  0  0  0  0
    3.3897    0.6881    1.1038 H   0  0  0  0  0  0  0  0  0  0  0  0
    3.2099    1.1883   -0.5784 H   0  0  0  0  0  0  0  0  0  0  0  0
    4.0273   -1.0337   -1.3875 H   0  0  0  0  0  0  0  0  0  0  0  0
    4.0765   -1.6589    0.2991 H   0  0  0  0  0  0  0  0  0  0  0  0
    8.0050    2.0252   -2.4814 H   0  0  0  0  0  0  0  0  0  0  0  0
   10.1864    2.7091   -1.4873 H   0  0  0  0  0  0  0  0  0  0  0  0
   10.7740    2.0325    0.8312 H   0  0  0  0  0  0  0  0  0  0  0  0
    9.1791    0.6621    2.1794 H   0  0  0  0  0  0  0  0  0  0  0  0
    2.2377   -1.0725    2.0726 H   0  0  0  0  0  0  0  0  0  0  0  0
    1.7901   -2.2845    0.8380 H   0  0  0  0  0  0  0  0  0  0  0  0
   -2.3348   -2.5061    1.0853 H   0  0  0  0  0  0  0  0  0  0  0  0
   -2.4261   -3.9425   -0.7330 H   0  0  0  0  0  0  0  0  0  0  0  0
   -2.9106   -3.2101   -2.2948 H   0  0  0  0  0  0  0  0  0  0  0  0
   -4.1250   -4.1118   -1.2947 H   0  0  0  0  0  0  0  0  0  0  0  0
   -5.4460   -2.5713   -2.6108 H   0  0  0  0  0  0  0  0  0  0  0  0
   -6.1174   -0.9164   -2.6221 H   0  0  0  0  0  0  0  0  0  0  0  0
   -4.6934   -1.3285   -4.3558 H   0  0  0  0  0  0  0  0  0  0  0  0
   -5.6467    0.5594   -0.9095 H   0  0  0  0  0  0  0  0  0  0  0  0
   -3.5859    2.8492    0.9734 H   0  0  0  0  0  0  0  0  0  0  0  0
   -3.2266    2.2491    2.6443 H   0  0  0  0  0  0  0  0  0  0  0  0
   -4.5429    3.3979    2.3912 H   0  0  0  0  0  0  0  0  0  0  0  0
   -6.1749   -0.0740    2.8919 H   0  0  0  0  0  0  0  0  0  0  0  0
   -6.0634    1.5631    3.6339 H   0  0  0  0  0  0  0  0  0  0  0  0
   -4.6691    0.4710    3.7040 H   0  0  0  0  0  0  0  0  0  0  0  0
   -7.0478    1.2238    0.8236 H   0  0  0  0  0  0  0  0  0  0  0  0
   -6.0086    2.5248    0.0938 H   0  0  0  0  0  0  0  0  0  0  0  0
   -6.7471    2.7534    1.7004 H   0  0  0  0  0  0  0  0  0  0  0  0
   -0.8211    2.9140    0.7402 H   0  0  0  0  0  0  0  0  0  0  0  0
  1  2  1  0
  2  3  1  0
  2  4  1  0
  4  5  1  0
  5  6  1  0
  6  7  1  0
  7  8  2  0
  8  9  1  0
  9 10  2  0
 10 11  1  0
 11 12  2  0
 12 13  1  0
 13 14  2  0
 14 15  1  0
  4 16  1  0
 16 17  1  0
 17 18  2  0
 17 19  1  0
 19 20  1  0
 20 21  1  0
 21 22  2  0
 22 23  1  0
 23 24  1  0
 23 25  2  0
 25 26  1  0
 26 27  1  0
 25 28  1  0
 28 29  2  0
 29 30  1  0
 30 31  1  0
 30 32  1  0
 30 33  1  0
 19 34  2  0
 34 35  1  0
 34 36  1  0
 14  9  1  0
 15  7  1  0
 29 21  1  0
 36  4  1  0
  1 37  1  0
  1 38  1  0
  1 39  1  0
  2 40  1  0
  3 41  1  0
  3 42  1  0
  3 43  1  0
  5 44  1  0
  5 45  1  0
  6 46  1  0
  6 47  1  0
 10 48  1  0
 11 49  1  0
 12 50  1  0
 13 51  1  0
 16 52  1  0
 16 53  1  0
 22 54  1  0
 24 55  1  0
 24 56  1  0
 24 57  1  0
 26 58  1  0
 26 59  1  0
 27 60  1  0
 28 61  1  0
 31 62  1  0
 31 63  1  0
 31 64  1  0
 32 65  1  0
 32 66  1  0
 32 67  1  0
 33 68  1  0
 33 69  1  0
 33 70  1  0
 35 71  1  0
M  END
$$$$
