
     RDKit          3D

 74 77  0  0  0  0  0  0  0  0999 V2000
    0.5774    6.3722   -0.9644 C   0  0  0  0  0  0  0  0  0  0  0  0
    0.8437    5.2624   -1.8161 O   0  0  0  0  0  0  0  0  0  0  0  0
    1.4381    4.0645   -1.3928 C   0  0  0  0  0  0  0  0  0  0  0  0
    1.6665    3.0617   -2.3427 C   0  0  0  0  0  0  0  0  0  0  0  0
    2.2631    1.8534   -1.9706 C   0  0  0  0  0  0  0  0  0  0  0  0
    2.6374    1.6329   -0.6394 C   0  0  0  0  0  0  0  0  0  0  0  0
    3.3452    0.0852   -0.1699 S   0  0  0  0  0  0  0  0  0  0  0  0
    3.9386    0.1939    1.2071 O   0  0  0  0  0  0  0  0  0  0  0  0
    4.4480   -0.2518   -1.1332 O   0  0  0  0  0  0  0  0  0  0  0  0
    2.1385   -1.1747   -0.1676 N   0  0  0  0  0  0  0  0  0  0  0  0
    0.9126   -0.6481    0.4568 C   0  0  0  0  0  0  0  0  0  0  0  0
   -0.0526   -1.7849    0.8522 C   0  0  1  0  0  0  0  0  0  0  0  0
    0.6179   -2.7117    1.6700 O   0  0  0  0  0  0  0  0  0  0  0  0
   -1.3317   -1.2396    1.5508 C   0  0  2  0  0  0  0  0  0  0  0  0
   -2.3457   -2.3597    1.8775 C   0  0  0  0  0  0  0  0  0  0  0  0
   -1.9032   -3.2450    3.0161 C   0  0  0  0  0  0  0  0  0  0  0  0
   -1.4972   -4.5690    2.7745 C   0  0  0  0  0  0  0  0  0  0  0  0
   -1.0782   -5.3815    3.8325 C   0  0  0  0  0  0  0  0  0  0  0  0
   -1.0649   -4.8815    5.1374 C   0  0  0  0  0  0  0  0  0  0  0  0
   -1.4718   -3.5681    5.3869 C   0  0  0  0  0  0  0  0  0  0  0  0
   -1.8911   -2.7518    4.3320 C   0  0  0  0  0  0  0  0  0  0  0  0
   -1.9929   -0.2635    0.6759 N   0  0  0  0  0  0  0  0  0  0  0  0
   -1.8623    1.1542    0.8386 C   0  0  0  0  0  0  0  0  0  0  0  0
   -1.3167    1.6331    1.8708 O   0  0  0  0  0  0  0  0  0  0  0  0
   -2.3247    1.9990   -0.1752 O   0  0  0  0  0  0  0  0  0  0  0  0
   -2.1927    3.4206   -0.1326 C   0  0  0  0  0  0  0  0  0  0  0  0
   -2.5335    3.9976   -1.4724 C   0  0  0  0  0  0  0  0  0  0  0  0
   -4.0218    4.2552   -1.3641 C   0  0  0  0  0  0  0  0  0  0  0  0
   -4.3763    4.3877   -0.0063 O   0  0  0  0  0  0  0  0  0  0  0  0
   -3.2514    4.0360    0.7672 C   0  0  0  0  0  0  0  0  0  0  0  0
    1.8596   -1.4588   -1.4716 O   0  0  0  0  0  0  0  0  0  0  0  0
    1.9467   -2.8625   -1.6362 C   0  0  0  0  0  0  0  0  0  0  0  0
    3.2811   -3.2435   -2.2597 C   0  0  0  0  0  0  0  0  0  0  0  0
    3.1016   -3.0510   -3.7577 C   0  0  0  0  0  0  0  0  0  0  0  0
    1.6030   -3.1659   -4.0291 C   0  0  0  0  0  0  0  0  0  0  0  0
    0.9193   -3.2978   -2.6715 C   0  0  0  0  0  0  0  0  0  0  0  0
    2.4002    2.6277    0.3188 C   0  0  0  0  0  0  0  0  0  0  0  0
    1.8088    3.8381   -0.0535 C   0  0  0  0  0  0  0  0  0  0  0  0
   -0.1209    6.0750   -0.1538 H   0  0  0  0  0  0  0  0  0  0  0  0
    1.5247    6.7556   -0.5301 H   0  0  0  0  0  0  0  0  0  0  0  0
    0.1053    7.1804   -1.5595 H   0  0  0  0  0  0  0  0  0  0  0  0
    1.3802    3.2204   -3.3747 H   0  0  0  0  0  0  0  0  0  0  0  0
    2.4268    1.0875   -2.7183 H   0  0  0  0  0  0  0  0  0  0  0  0
    0.4055    0.0502   -0.2453 H   0  0  0  0  0  0  0  0  0  0  0  0
    1.1658   -0.0799    1.3804 H   0  0  0  0  0  0  0  0  0  0  0  0
   -0.3699   -2.3098   -0.0738 H   0  0  0  0  0  0  0  0  0  0  0  0
    0.8889   -2.2386    2.5002 H   0  0  0  0  0  0  0  0  0  0  0  0
   -1.0387   -0.7458    2.5036 H   0  0  0  0  0  0  0  0  0  0  0  0
   -2.5451   -2.9631    0.9644 H   0  0  0  0  0  0  0  0  0  0  0  0
   -3.3150   -1.8957    2.1647 H   0  0  0  0  0  0  0  0  0  0  0  0
   -1.4966   -4.9688    1.7681 H   0  0  0  0  0  0  0  0  0  0  0  0
   -0.7625   -6.3988    3.6405 H   0  0  0  0  0  0  0  0  0  0  0  0
   -0.7400   -5.5118    5.9550 H   0  0  0  0  0  0  0  0  0  0  0  0
   -1.4624   -3.1823    6.3981 H   0  0  0  0  0  0  0  0  0  0  0  0
   -2.2050   -1.7362    4.5391 H   0  0  0  0  0  0  0  0  0  0  0  0
   -2.4457   -0.6098   -0.2004 H   0  0  0  0  0  0  0  0  0  0  0  0
   -1.1629    3.7071    0.1749 H   0  0  0  0  0  0  0  0  0  0  0  0
   -1.9973    4.9606   -1.6188 H   0  0  0  0  0  0  0  0  0  0  0  0
   -2.2888    3.3056   -2.3081 H   0  0  0  0  0  0  0  0  0  0  0  0
   -4.5849    3.4013   -1.7996 H   0  0  0  0  0  0  0  0  0  0  0  0
   -4.2971    5.1793   -1.9158 H   0  0  0  0  0  0  0  0  0  0  0  0
   -2.8459    4.9549    1.2439 H   0  0  0  0  0  0  0  0  0  0  0  0
   -3.5572    3.3348    1.5724 H   0  0  0  0  0  0  0  0  0  0  0  0
    1.7834   -3.4301   -0.6885 H   0  0  0  0  0  0  0  0  0  0  0  0
    4.1225   -2.6398   -1.8645 H   0  0  0  0  0  0  0  0  0  0  0  0
    3.4901   -4.3162   -2.0497 H   0  0  0  0  0  0  0  0  0  0  0  0
    3.4614   -2.0394   -4.0492 H   0  0  0  0  0  0  0  0  0  0  0  0
    3.6741   -3.8161   -4.3259 H   0  0  0  0  0  0  0  0  0  0  0  0
    1.2404   -2.2538   -4.5522 H   0  0  0  0  0  0  0  0  0  0  0  0
    1.3833   -4.0535   -4.6618 H   0  0  0  0  0  0  0  0  0  0  0  0
   -0.0044   -2.6804   -2.6203 H   0  0  0  0  0  0  0  0  0  0  0  0
    0.6454   -4.3621   -2.4959 H   0  0  0  0  0  0  0  0  0  0  0  0
    2.6654    2.4669    1.3556 H   0  0  0  0  0  0  0  0  0  0  0  0
    1.6388    4.5875    0.7073 H   0  0  0  0  0  0  0  0  0  0  0  0
  1  2  1  0
  2  3  1  0
  3  4  2  0
  4  5  1  0
  5  6  2  0
  6  7  1  0
  7  8  2  0
  7  9  2  0
  7 10  1  0
 10 11  1  0
 11 12  1  0
 12 13  1  0
 12 14  1  0
 14 15  1  0
 15 16  1  0
 16 17  2  0
 17 18  1  0
 18 19  2  0
 19 20  1  0
 20 21  2  0
 14 22  1  0
 22 23  1  0
 23 24  2  0
 23 25  1  0
 25 26  1  0
 26 27  1  0
 27 28  1  0
 28 29  1  0
 29 30  1  0
 10 31  1  0
 31 32  1  0
 32 33  1  0
 33 34  1  0
 34 35  1  0
 35 36  1  0
  6 37  1  0
 37 38  2  0
 21 16  1  0
 30 26  1  0
 36 32  1  0
 38  3  1  0
  1 39  1  0
  1 40  1  0
  1 41  1  0
  4 42  1  0
  5 43  1  0
 11 44  1  0
 11 45  1  0
 12 46  1  6
 13 47  1  0
 14 48  1  1
 15 49  1  0
 15 50  1  0
 17 51  1  0
 18 52  1  0
 19 53  1  0
 20 54  1  0
 21 55  1  0
 22 56  1  0
 26 57  1  0
 27 58  1  0
 27 59  1  0
 28 60  1  0
 28 61  1  0
 30 62  1  0
 30 63  1  0
 32 64  1  0
 33 65  1  0
 33 66  1  0
 34 67  1  0
 34 68  1  0
 35 69  1  0
 35 70  1  0
 36 71  1  0
 36 72  1  0
 37 73  1  0
 38 74  1  0
M  END
$$$$
