
     RDKit          3D

 77 80  0  0  0  0  0  0  0  0999 V2000
    2.3282    3.1225   -1.9254 C   0  0  0  0  0  0  0  0  0  0  0  0
    3.7537    2.8797   -2.3599 C   0  0  0  0  0  0  0  0  0  0  0  0
    4.6039    3.9799   -2.6389 C   0  0  0  0  0  0  0  0  0  0  0  0
    4.2127    5.3015   -2.4092 O   0  0  0  0  0  0  0  0  0  0  0  0
    5.8837    3.7599   -3.1565 C   0  0  0  0  0  0  0  0  0  0  0  0
    6.3456    2.4651   -3.3777 C   0  0  0  0  0  0  0  0  0  0  0  0
    5.5429    1.3727   -3.0569 C   0  0  0  0  0  0  0  0  0  0  0  0
    4.2584    1.5610   -2.5228 C   0  0  0  0  0  0  0  0  0  0  0  0
    3.4914    0.3596   -2.1285 C   0  0  0  0  0  0  0  0  0  0  0  0
    3.3859   -0.5987   -2.9418 O   0  0  0  0  0  0  0  0  0  0  0  0
    2.9325    0.2511   -0.8091 N   0  0  0  0  0  0  0  0  0  0  0  0
    2.3316   -0.9944   -0.3180 C   0  0  2  0  0  0  0  0  0  0  0  0
    1.3568   -0.7028    0.8501 C   0  0  0  0  0  0  0  0  0  0  0  0
    0.0119   -0.1152    0.3602 C   0  0  2  0  0  0  0  0  0  0  0  0
    0.2216    1.1576   -0.1993 O   0  0  0  0  0  0  0  0  0  0  0  0
   -1.0626   -0.0320    1.4855 C   0  0  2  0  0  0  0  0  0  0  0  0
   -1.5061   -1.4097    2.0448 C   0  0  0  0  0  0  0  0  0  0  0  0
   -2.0422   -2.3451    0.9868 C   0  0  0  0  0  0  0  0  0  0  0  0
   -1.2160   -3.3313    0.4190 C   0  0  0  0  0  0  0  0  0  0  0  0
   -1.7088   -4.1753   -0.5803 C   0  0  0  0  0  0  0  0  0  0  0  0
   -3.0298   -4.0466   -1.0168 C   0  0  0  0  0  0  0  0  0  0  0  0
   -3.8616   -3.0769   -0.4505 C   0  0  0  0  0  0  0  0  0  0  0  0
   -3.3723   -2.2308    0.5492 C   0  0  0  0  0  0  0  0  0  0  0  0
   -2.2366    0.7087    1.0032 N   0  0  0  0  0  0  0  0  0  0  0  0
   -3.1407    1.3844    1.8921 C   0  0  0  0  0  0  0  0  0  0  0  0
   -2.9556    1.3304    3.1387 O   0  0  0  0  0  0  0  0  0  0  0  0
   -4.3069    2.1275    1.3565 C   0  0  0  0  0  0  0  0  0  0  0  0
   -5.0623    1.5337    0.3308 C   0  0  0  0  0  0  0  0  0  0  0  0
   -6.2118    2.1509   -0.1557 C   0  0  0  0  0  0  0  0  0  0  0  0
   -6.6393    3.3586    0.3876 C   0  0  0  0  0  0  0  0  0  0  0  0
   -5.9103    3.9780    1.4062 C   0  0  0  0  0  0  0  0  0  0  0  0
   -6.4195    5.1653    1.9389 O   0  0  0  0  0  0  0  0  0  0  0  0
   -4.7031    3.3945    1.8702 C   0  0  0  0  0  0  0  0  0  0  0  0
   -3.8553    4.1286    2.8838 C   0  0  0  0  0  0  0  0  0  0  0  0
    3.4534   -1.9638    0.1140 C   0  0  0  0  0  0  0  0  0  0  0  0
    2.9336   -3.3634    0.3378 C   0  0  0  0  0  0  0  0  0  0  0  0
    2.5604   -4.1610   -0.7575 C   0  0  0  0  0  0  0  0  0  0  0  0
    2.0343   -5.4398   -0.5518 C   0  0  0  0  0  0  0  0  0  0  0  0
    1.8777   -5.9323    0.7464 C   0  0  0  0  0  0  0  0  0  0  0  0
    2.2501   -5.1478    1.8412 C   0  0  0  0  0  0  0  0  0  0  0  0
    2.7769   -3.8682    1.6403 C   0  0  0  0  0  0  0  0  0  0  0  0
    1.6844    2.2413   -2.1170 H   0  0  0  0  0  0  0  0  0  0  0  0
    1.8768    3.9492   -2.5119 H   0  0  0  0  0  0  0  0  0  0  0  0
    2.3014    3.3741   -0.8447 H   0  0  0  0  0  0  0  0  0  0  0  0
    3.3462    5.5548   -1.9528 H   0  0  0  0  0  0  0  0  0  0  0  0
    6.5265    4.6011   -3.3839 H   0  0  0  0  0  0  0  0  0  0  0  0
    7.3384    2.3069   -3.7789 H   0  0  0  0  0  0  0  0  0  0  0  0
    5.9357    0.3734   -3.2026 H   0  0  0  0  0  0  0  0  0  0  0  0
    3.1226    1.0210   -0.1279 H   0  0  0  0  0  0  0  0  0  0  0  0
    1.7567   -1.4670   -1.1459 H   0  0  0  0  0  0  0  0  0  0  0  0
    1.1583   -1.6469    1.3852 H   0  0  0  0  0  0  0  0  0  0  0  0
    1.8304   -0.0178    1.5871 H   0  0  0  0  0  0  0  0  0  0  0  0
   -0.3849   -0.7653   -0.4485 H   0  0  0  0  0  0  0  0  0  0  0  0
    0.5466    1.7543    0.5251 H   0  0  0  0  0  0  0  0  0  0  0  0
   -0.6089    0.5401    2.3258 H   0  0  0  0  0  0  0  0  0  0  0  0
   -2.2938   -1.2522    2.8127 H   0  0  0  0  0  0  0  0  0  0  0  0
   -0.6712   -1.8908    2.5952 H   0  0  0  0  0  0  0  0  0  0  0  0
   -0.1932   -3.4499    0.7475 H   0  0  0  0  0  0  0  0  0  0  0  0
   -1.0662   -4.9298   -1.0155 H   0  0  0  0  0  0  0  0  0  0  0  0
   -3.4101   -4.7008   -1.7906 H   0  0  0  0  0  0  0  0  0  0  0  0
   -4.8866   -2.9817   -0.7849 H   0  0  0  0  0  0  0  0  0  0  0  0
   -4.0306   -1.4917    0.9864 H   0  0  0  0  0  0  0  0  0  0  0  0
   -2.3918    0.7969   -0.0269 H   0  0  0  0  0  0  0  0  0  0  0  0
   -4.7785    0.5741   -0.0814 H   0  0  0  0  0  0  0  0  0  0  0  0
   -6.7879    1.6781   -0.9408 H   0  0  0  0  0  0  0  0  0  0  0  0
   -7.5513    3.8139    0.0223 H   0  0  0  0  0  0  0  0  0  0  0  0
   -6.0251    5.6297    2.7462 H   0  0  0  0  0  0  0  0  0  0  0  0
   -3.8404    5.2171    2.6697 H   0  0  0  0  0  0  0  0  0  0  0  0
   -4.2544    3.9534    3.9045 H   0  0  0  0  0  0  0  0  0  0  0  0
   -2.7930    3.8138    2.8429 H   0  0  0  0  0  0  0  0  0  0  0  0
    3.9518   -1.5756    1.0297 H   0  0  0  0  0  0  0  0  0  0  0  0
    4.2332   -2.0080   -0.6771 H   0  0  0  0  0  0  0  0  0  0  0  0
    2.6689   -3.7879   -1.7685 H   0  0  0  0  0  0  0  0  0  0  0  0
    1.7427   -6.0471   -1.3990 H   0  0  0  0  0  0  0  0  0  0  0  0
    1.4663   -6.9208    0.9040 H   0  0  0  0  0  0  0  0  0  0  0  0
    2.1256   -5.5292    2.8464 H   0  0  0  0  0  0  0  0  0  0  0  0
    3.0490   -3.2670    2.4989 H   0  0  0  0  0  0  0  0  0  0  0  0
  1  2  1  0
  2  3  2  0
  3  4  1  0
  3  5  1  0
  5  6  2  0
  6  7  1  0
  7  8  2  0
  8  9  1  0
  9 10  2  0
  9 11  1  0
 11 12  1  0
 12 13  1  0
 13 14  1  0
 14 15  1  0
 14 16  1  0
 16 17  1  0
 17 18  1  0
 18 19  2  0
 19 20  1  0
 20 21  2  0
 21 22  1  0
 22 23  2  0
 16 24  1  0
 24 25  1  0
 25 26  2  0
 25 27  1  0
 27 28  2  0
 28 29  1  0
 29 30  2  0
 30 31  1  0
 31 32  1  0
 31 33  2  0
 33 34  1  0
 12 35  1  0
 35 36  1  0
 36 37  2  0
 37 38  1  0
 38 39  2  0
 39 40  1  0
 40 41  2  0
  8  2  1  0
 23 18  1  0
 33 27  1  0
 41 36  1  0
  1 42  1  0
  1 43  1  0
  1 44  1  0
  4 45  1  0
  5 46  1  0
  6 47  1  0
  7 48  1  0
 11 49  1  0
 12 50  1  6
 13 51  1  0
 13 52  1  0
 14 53  1  6
 15 54  1  0
 16 55  1  1
 17 56  1  0
 17 57  1  0
 19 58  1  0
 20 59  1  0
 21 60  1  0
 22 61  1  0
 23 62  1  0
 24 63  1  0
 28 64  1  0
 29 65  1  0
 30 66  1  0
 32 67  1  0
 34 68  1  0
 34 69  1  0
 34 70  1  0
 35 71  1  0
 35 72  1  0
 37 73  1  0
 38 74  1  0
 39 75  1  0
 40 76  1  0
 41 77  1  0
M  END
$$$$
