
     RDKit          3D

 84 87  0  0  0  0  0  0  0  0999 V2000
   -0.9206    4.4840    0.7261 C   0  0  0  0  0  0  0  0  0  0  0  0
   -2.2630    4.0371    0.1264 C   0  0  0  0  0  0  0  0  0  0  0  0
   -3.1169    3.3588    1.2111 C   0  0  0  0  0  0  0  0  0  0  0  0
   -2.1487    3.1157   -1.1327 C   0  0  0  0  0  0  0  0  0  0  0  0
   -1.6358    1.7834   -0.7824 N   0  0  0  0  0  0  0  0  0  0  0  0
   -2.1012    0.5845   -1.4217 C   0  0  0  0  0  0  0  0  0  0  0  0
   -3.0995    0.6160   -2.1915 O   0  0  0  0  0  0  0  0  0  0  0  0
   -1.3813   -0.7111   -1.2095 C   0  0  0  0  0  0  0  0  0  0  0  0
   -0.5388   -1.0428   -2.4468 C   0  0  2  0  0  0  0  0  0  0  0  0
   -1.2015   -1.9699   -3.2745 O   0  0  0  0  0  0  0  0  0  0  0  0
    0.0062   -2.4149   -2.6906 C   0  0  2  0  0  0  0  0  0  0  0  0
   -0.1877   -3.5887   -1.6919 C   0  0  2  0  0  0  0  0  0  0  0  0
   -1.5112   -4.3616   -1.8878 C   0  0  0  0  0  0  0  0  0  0  0  0
   -1.5428   -5.6102   -1.0404 C   0  0  0  0  0  0  0  0  0  0  0  0
   -0.8172   -6.7480   -1.4330 C   0  0  0  0  0  0  0  0  0  0  0  0
   -0.7999   -7.8875   -0.6229 C   0  0  0  0  0  0  0  0  0  0  0  0
   -1.5027   -7.8991    0.5847 C   0  0  0  0  0  0  0  0  0  0  0  0
   -2.2250   -6.7716    0.9841 C   0  0  0  0  0  0  0  0  0  0  0  0
   -2.2461   -5.6303    0.1766 C   0  0  0  0  0  0  0  0  0  0  0  0
   -0.0220   -3.1473   -0.3042 N   0  0  0  0  0  0  0  0  0  0  0  0
    1.2336   -2.6716    0.1983 C   0  0  0  0  0  0  0  0  0  0  0  0
    2.2688   -2.7357   -0.5204 O   0  0  0  0  0  0  0  0  0  0  0  0
    1.3240   -2.1111    1.5944 C   0  0  0  0  0  0  0  0  0  0  0  0
    2.1455   -3.0344    2.5078 C   0  0  0  0  0  0  0  0  0  0  0  0
    1.4404   -4.3427    2.7332 C   0  0  0  0  0  0  0  0  0  0  0  0
    1.6320   -5.4354    1.8341 N   0  0  0  0  0  0  0  0  0  0  0  0
    0.6361   -4.4613    3.6957 O   0  0  0  0  0  0  0  0  0  0  0  0
    1.9285   -0.7771    1.5475 N   0  0  0  0  0  0  0  0  0  0  0  0
    1.4919    0.2969    2.3944 C   0  0  0  0  0  0  0  0  0  0  0  0
    0.7699    0.0521    3.3997 O   0  0  0  0  0  0  0  0  0  0  0  0
    1.8769    1.6885    2.0847 C   0  0  0  0  0  0  0  0  0  0  0  0
    1.6495    2.7271    3.0033 C   0  0  0  0  0  0  0  0  0  0  0  0
    2.0039    4.0363    2.6693 C   0  0  0  0  0  0  0  0  0  0  0  0
    2.5711    4.3075    1.4186 C   0  0  0  0  0  0  0  0  0  0  0  0
    2.9132    5.6139    1.0397 C   0  0  0  0  0  0  0  0  0  0  0  0
    3.4665    5.8521   -0.2228 C   0  0  0  0  0  0  0  0  0  0  0  0
    3.6832    4.7911   -1.1082 C   0  0  0  0  0  0  0  0  0  0  0  0
    3.3459    3.4857   -0.7374 C   0  0  0  0  0  0  0  0  0  0  0  0
    2.7862    3.2389    0.5211 C   0  0  0  0  0  0  0  0  0  0  0  0
    2.4374    1.9742    0.8768 N   0  0  0  0  0  0  0  0  0  0  0  0
   -1.3866    3.6858   -2.3713 C   0  0  0  0  0  0  0  0  0  0  0  0
   -1.8207    5.1127   -2.7334 C   0  0  0  0  0  0  0  0  0  0  0  0
    0.1476    3.5812   -2.2950 C   0  0  0  0  0  0  0  0  0  0  0  0
   -0.2176    3.6355    0.8221 H   0  0  0  0  0  0  0  0  0  0  0  0
   -1.0701    4.9233    1.7355 H   0  0  0  0  0  0  0  0  0  0  0  0
   -0.4644    5.2830    0.1102 H   0  0  0  0  0  0  0  0  0  0  0  0
   -2.8141    4.9572   -0.1674 H   0  0  0  0  0  0  0  0  0  0  0  0
   -4.0926    3.0344    0.7907 H   0  0  0  0  0  0  0  0  0  0  0  0
   -2.5935    2.4730    1.6307 H   0  0  0  0  0  0  0  0  0  0  0  0
   -3.3241    4.0710    2.0384 H   0  0  0  0  0  0  0  0  0  0  0  0
   -3.2017    2.9949   -1.4757 H   0  0  0  0  0  0  0  0  0  0  0  0
   -0.8072    1.7093   -0.1515 H   0  0  0  0  0  0  0  0  0  0  0  0
   -0.7111   -0.6154   -0.3308 H   0  0  0  0  0  0  0  0  0  0  0  0
   -2.1304   -1.5001   -0.9924 H   0  0  0  0  0  0  0  0  0  0  0  0
   -0.0782   -0.2200   -3.0350 H   0  0  0  0  0  0  0  0  0  0  0  0
    0.8054   -2.5022   -3.4566 H   0  0  0  0  0  0  0  0  0  0  0  0
    0.6302   -4.3101   -1.9137 H   0  0  0  0  0  0  0  0  0  0  0  0
   -1.6116   -4.6528   -2.9566 H   0  0  0  0  0  0  0  0  0  0  0  0
   -2.3801   -3.7141   -1.6456 H   0  0  0  0  0  0  0  0  0  0  0  0
   -0.2598   -6.7482   -2.3616 H   0  0  0  0  0  0  0  0  0  0  0  0
   -0.2376   -8.7600   -0.9293 H   0  0  0  0  0  0  0  0  0  0  0  0
   -1.4860   -8.7809    1.2120 H   0  0  0  0  0  0  0  0  0  0  0  0
   -2.7657   -6.7804    1.9216 H   0  0  0  0  0  0  0  0  0  0  0  0
   -2.8040   -4.7617    0.5036 H   0  0  0  0  0  0  0  0  0  0  0  0
   -0.8385   -3.1768    0.3468 H   0  0  0  0  0  0  0  0  0  0  0  0
    0.2951   -2.0264    2.0105 H   0  0  0  0  0  0  0  0  0  0  0  0
    2.2983   -2.5364    3.4901 H   0  0  0  0  0  0  0  0  0  0  0  0
    3.1512   -3.2173    2.0701 H   0  0  0  0  0  0  0  0  0  0  0  0
    1.1071   -6.3278    1.9695 H   0  0  0  0  0  0  0  0  0  0  0  0
    2.2840   -5.3512    1.0231 H   0  0  0  0  0  0  0  0  0  0  0  0
    2.7470   -0.6151    0.9175 H   0  0  0  0  0  0  0  0  0  0  0  0
    1.2020    2.5294    3.9693 H   0  0  0  0  0  0  0  0  0  0  0  0
    1.8227    4.8341    3.3794 H   0  0  0  0  0  0  0  0  0  0  0  0
    2.7498    6.4460    1.7141 H   0  0  0  0  0  0  0  0  0  0  0  0
    3.7278    6.8607   -0.5157 H   0  0  0  0  0  0  0  0  0  0  0  0
    4.1104    4.9812   -2.0843 H   0  0  0  0  0  0  0  0  0  0  0  0
    3.5101    2.6710   -1.4318 H   0  0  0  0  0  0  0  0  0  0  0  0
   -1.6847    3.0463   -3.2329 H   0  0  0  0  0  0  0  0  0  0  0  0
   -2.9281    5.1734   -2.7961 H   0  0  0  0  0  0  0  0  0  0  0  0
   -1.4043    5.3958   -3.7237 H   0  0  0  0  0  0  0  0  0  0  0  0
   -1.4587    5.8457   -1.9837 H   0  0  0  0  0  0  0  0  0  0  0  0
    0.4682    2.5435   -2.0676 H   0  0  0  0  0  0  0  0  0  0  0  0
    0.5781    4.2656   -1.5429 H   0  0  0  0  0  0  0  0  0  0  0  0
    0.5877    3.8513   -3.2786 H   0  0  0  0  0  0  0  0  0  0  0  0
  1  2  1  0
  2  3  1  0
  2  4  1  0
  4  5  1  0
  5  6  1  0
  6  7  2  0
  6  8  1  0
  8  9  1  0
  9 10  1  0
 10 11  1  0
 11 12  1  0
 12 13  1  0
 13 14  1  0
 14 15  2  0
 15 16  1  0
 16 17  2  0
 17 18  1  0
 18 19  2  0
 12 20  1  0
 20 21  1  0
 21 22  2  0
 21 23  1  0
 23 24  1  0
 24 25  1  0
 25 26  1  0
 25 27  2  0
 23 28  1  0
 28 29  1  0
 29 30  2  0
 29 31  1  0
 31 32  2  0
 32 33  1  0
 33 34  2  0
 34 35  1  0
 35 36  2  0
 36 37  1  0
 37 38  2  0
 38 39  1  0
 39 40  2  0
  4 41  1  0
 41 42  1  0
 41 43  1  0
 11  9  1  0
 19 14  1  0
 39 34  1  0
 40 31  1  0
  1 44  1  0
  1 45  1  0
  1 46  1  0
  2 47  1  0
  3 48  1  0
  3 49  1  0
  3 50  1  0
  4 51  1  0
  5 52  1  0
  8 53  1  0
  8 54  1  0
  9 55  1  6
 11 56  1  6
 12 57  1  6
 13 58  1  0
 13 59  1  0
 15 60  1  0
 16 61  1  0
 17 62  1  0
 18 63  1  0
 19 64  1  0
 20 65  1  0
 23 66  1  0
 24 67  1  0
 24 68  1  0
 26 69  1  0
 26 70  1  0
 28 71  1  0
 32 72  1  0
 33 73  1  0
 35 74  1  0
 36 75  1  0
 37 76  1  0
 38 77  1  0
 41 78  1  0
 42 79  1  0
 42 80  1  0
 42 81  1  0
 43 82  1  0
 43 83  1  0
 43 84  1  0
M  END
$$$$
