
     RDKit          3D

 69 74  0  0  0  0  0  0  0  0999 V2000
    1.8337    1.8035    1.9495 O   0  0  0  0  0  0  0  0  0  0  0  0
    2.5580    1.1541    0.9546 C   0  0  0  0  0  0  0  0  0  0  0  0
    3.4362    1.8520    0.2456 O   0  0  0  0  0  0  0  0  0  0  0  0
    4.1804    1.3323   -0.7247 C   0  0  0  0  0  0  0  0  0  0  0  0
    5.1452    2.2613   -1.4206 C   0  0  0  0  0  0  0  0  0  0  0  0
    6.5546    2.2134   -0.8112 C   0  0  0  0  0  0  0  0  0  0  0  0
    7.3960    1.0033   -1.2574 C   0  0  0  0  0  0  0  0  0  0  0  0
    6.9999   -0.3124   -0.5555 C   0  0  0  0  0  0  0  0  0  0  0  0
    6.2231   -1.2869   -1.4589 C   0  0  0  0  0  0  0  0  0  0  0  0
    4.9458   -0.7034   -2.0806 C   0  0  0  0  0  0  0  0  0  0  0  0
    4.0590   -0.0405   -1.0445 C   0  0  0  0  0  0  0  0  0  0  0  0
    3.1504   -0.8164   -0.2996 C   0  0  0  0  0  0  0  0  0  0  0  0
    3.0451   -2.0522   -0.5335 O   0  0  0  0  0  0  0  0  0  0  0  0
    2.3675   -0.2191    0.7079 C   0  0  0  0  0  0  0  0  0  0  0  0
    1.3766   -1.0406    1.5264 C   0  0  0  0  0  0  0  0  0  0  0  0
    1.8848   -1.1670    2.9818 C   0  0  0  0  0  0  0  0  0  0  0  0
    1.3945   -2.3870    3.7483 C   0  0  0  0  0  0  0  0  0  0  0  0
    2.8284   -2.3331    3.2437 C   0  0  0  0  0  0  0  0  0  0  0  0
   -0.0302   -0.4690    1.4046 C   0  0  0  0  0  0  0  0  0  0  0  0
   -0.6854    0.1864    2.4666 C   0  0  0  0  0  0  0  0  0  0  0  0
   -1.9708    0.7016    2.2934 C   0  0  0  0  0  0  0  0  0  0  0  0
   -2.6203    0.5801    1.0646 C   0  0  0  0  0  0  0  0  0  0  0  0
   -1.9845   -0.0594   -0.0142 C   0  0  0  0  0  0  0  0  0  0  0  0
   -2.6253   -0.2109   -1.2945 N   0  0  0  0  0  0  0  0  0  0  0  0
   -4.1107    0.5717   -1.7398 S   0  0  0  0  0  0  0  0  0  0  0  0
   -4.2926    0.4365   -3.2254 O   0  0  0  0  0  0  0  0  0  0  0  0
   -4.0104    2.0304   -1.3888 O   0  0  0  0  0  0  0  0  0  0  0  0
   -5.5000   -0.1707   -0.9220 C   0  0  0  0  0  0  0  0  0  0  0  0
   -5.2864   -1.3318   -0.1610 C   0  0  0  0  0  0  0  0  0  0  0  0
   -6.3352   -1.9415    0.5251 C   0  0  0  0  0  0  0  0  0  0  0  0
   -7.6206   -1.4109    0.4595 C   0  0  0  0  0  0  0  0  0  0  0  0
   -7.8731   -0.2659   -0.3072 C   0  0  0  0  0  0  0  0  0  0  0  0
   -9.1755    0.2531   -0.3785 C   0  0  0  0  0  0  0  0  0  0  0  0
   -9.4408    1.3845   -1.1496 C   0  0  0  0  0  0  0  0  0  0  0  0
   -8.4131    2.0044   -1.8586 C   0  0  0  0  0  0  0  0  0  0  0  0
   -7.1107    1.5026   -1.7977 C   0  0  0  0  0  0  0  0  0  0  0  0
   -6.8132    0.3651   -1.0159 C   0  0  0  0  0  0  0  0  0  0  0  0
   -0.6951   -0.5825    0.1696 C   0  0  0  0  0  0  0  0  0  0  0  0
    1.9696    2.7908    2.1290 H   0  0  0  0  0  0  0  0  0  0  0  0
    4.7623    3.2977   -1.2945 H   0  0  0  0  0  0  0  0  0  0  0  0
    5.1730    2.1012   -2.5165 H   0  0  0  0  0  0  0  0  0  0  0  0
    6.4994    2.2632    0.2988 H   0  0  0  0  0  0  0  0  0  0  0  0
    7.0909    3.1299   -1.1417 H   0  0  0  0  0  0  0  0  0  0  0  0
    7.3761    0.9013   -2.3641 H   0  0  0  0  0  0  0  0  0  0  0  0
    8.4526    1.2250   -0.9899 H   0  0  0  0  0  0  0  0  0  0  0  0
    6.4258   -0.1177    0.3764 H   0  0  0  0  0  0  0  0  0  0  0  0
    7.9288   -0.8331   -0.2348 H   0  0  0  0  0  0  0  0  0  0  0  0
    5.9522   -2.1809   -0.8557 H   0  0  0  0  0  0  0  0  0  0  0  0
    6.8903   -1.6348   -2.2774 H   0  0  0  0  0  0  0  0  0  0  0  0
    5.2068   -0.0161   -2.9064 H   0  0  0  0  0  0  0  0  0  0  0  0
    4.3906   -1.5275   -2.5786 H   0  0  0  0  0  0  0  0  0  0  0  0
    1.3051   -2.0655    1.0988 H   0  0  0  0  0  0  0  0  0  0  0  0
    2.0939   -0.2643    3.5948 H   0  0  0  0  0  0  0  0  0  0  0  0
    1.2932   -2.2283    4.8426 H   0  0  0  0  0  0  0  0  0  0  0  0
    0.7396   -3.0862    3.1857 H   0  0  0  0  0  0  0  0  0  0  0  0
    3.5779   -2.1489    4.0420 H   0  0  0  0  0  0  0  0  0  0  0  0
    3.0310   -3.0091    2.3856 H   0  0  0  0  0  0  0  0  0  0  0  0
   -0.2138    0.3082    3.4314 H   0  0  0  0  0  0  0  0  0  0  0  0
   -2.4673    1.1977    3.1175 H   0  0  0  0  0  0  0  0  0  0  0  0
   -3.6199    0.9790    0.9726 H   0  0  0  0  0  0  0  0  0  0  0  0
   -2.1535   -0.7799   -2.0327 H   0  0  0  0  0  0  0  0  0  0  0  0
   -4.3027   -1.7747   -0.0914 H   0  0  0  0  0  0  0  0  0  0  0  0
   -6.1494   -2.8319    1.1121 H   0  0  0  0  0  0  0  0  0  0  0  0
   -8.4203   -1.9009    1.0025 H   0  0  0  0  0  0  0  0  0  0  0  0
   -9.9891   -0.2185    0.1602 H   0  0  0  0  0  0  0  0  0  0  0  0
  -10.4474    1.7790   -1.2020 H   0  0  0  0  0  0  0  0  0  0  0  0
   -8.6267    2.8778   -2.4614 H   0  0  0  0  0  0  0  0  0  0  0  0
   -6.3537    2.0108   -2.3758 H   0  0  0  0  0  0  0  0  0  0  0  0
   -0.2010   -1.0784   -0.6577 H   0  0  0  0  0  0  0  0  0  0  0  0
  1  2  1  0
  2  3  1  0
  3  4  1  0
  4  5  1  0
  5  6  1  0
  6  7  1  0
  7  8  1  0
  8  9  1  0
  9 10  1  0
 10 11  1  0
 11 12  1  0
 12 13  2  0
 12 14  1  0
 14 15  1  0
 15 16  1  0
 16 17  1  0
 17 18  1  0
 15 19  1  0
 19 20  2  0
 20 21  1  0
 21 22  2  0
 22 23  1  0
 23 24  1  0
 24 25  1  0
 25 26  2  0
 25 27  2  0
 25 28  1  0
 28 29  2  0
 29 30  1  0
 30 31  2  0
 31 32  1  0
 32 33  2  0
 33 34  1  0
 34 35  2  0
 35 36  1  0
 36 37  2  0
 23 38  2  0
 11  4  2  0
 14  2  2  0
 18 16  1  0
 37 28  1  0
 37 32  1  0
 38 19  1  0
  1 39  1  0
  5 40  1  0
  5 41  1  0
  6 42  1  0
  6 43  1  0
  7 44  1  0
  7 45  1  0
  8 46  1  0
  8 47  1  0
  9 48  1  0
  9 49  1  0
 10 50  1  0
 10 51  1  0
 15 52  1  0
 16 53  1  0
 17 54  1  0
 17 55  1  0
 18 56  1  0
 18 57  1  0
 20 58  1  0
 21 59  1  0
 22 60  1  0
 24 61  1  0
 29 62  1  0
 30 63  1  0
 31 64  1  0
 33 65  1  0
 34 66  1  0
 35 67  1  0
 36 68  1  0
 38 69  1  0
M  END
$$$$
