
     RDKit          3D

 71 74  0  0  0  0  0  0  0  0999 V2000
    0.6435   -3.6042   -1.3252 C   0  0  0  0  0  0  0  0  0  0  0  0
    1.9007   -2.7395   -1.0871 C   0  0  0  0  0  0  0  0  0  0  0  0
    2.9089   -3.5647   -0.2606 C   0  0  0  0  0  0  0  0  0  0  0  0
    1.5675   -1.3533   -0.4179 C   0  0  0  0  0  0  0  0  0  0  0  0
    2.8606   -0.5453   -0.0567 C   0  0  0  0  0  0  0  0  0  0  0  0
    3.8105   -0.2468   -1.2311 C   0  0  0  0  0  0  0  0  0  0  0  0
    5.0291    0.4647   -0.7370 C   0  0  0  0  0  0  0  0  0  0  0  0
    5.0972    1.8120   -0.6003 N   0  0  0  0  0  0  0  0  0  0  0  0
    6.2895    2.1854   -0.0700 C   0  0  0  0  0  0  0  0  0  0  0  0
    6.6599    3.5067    0.1860 C   0  0  0  0  0  0  0  0  0  0  0  0
    7.9253    3.7568    0.7450 C   0  0  0  0  0  0  0  0  0  0  0  0
    8.7986    2.6909    1.0413 C   0  0  0  0  0  0  0  0  0  0  0  0
    8.4143    1.3657    0.7814 C   0  0  0  0  0  0  0  0  0  0  0  0
    7.1566    1.1452    0.2258 C   0  0  0  0  0  0  0  0  0  0  0  0
    6.4294   -0.3113   -0.1806 S   0  0  0  0  0  0  0  0  0  0  0  0
    0.6459   -0.4988   -1.3340 C   0  0  0  0  0  0  0  0  0  0  0  0
    0.1070    0.6619   -0.5586 C   0  0  0  0  0  0  0  0  0  0  0  0
    0.0899    1.8118   -1.0713 O   0  0  0  0  0  0  0  0  0  0  0  0
   -0.3823    0.4323    0.8142 C   0  0  0  0  0  0  0  0  0  0  0  0
   -1.5083    1.6271    1.5813 S   0  0  0  0  0  0  0  0  0  0  0  0
   -2.9386    1.2292    0.5386 C   0  0  0  0  0  0  0  0  0  0  0  0
   -2.9609    1.8809   -0.7025 C   0  0  0  0  0  0  0  0  0  0  0  0
   -3.8556    1.5138   -1.7109 C   0  0  0  0  0  0  0  0  0  0  0  0
   -3.7914    2.2188   -3.0410 C   0  0  0  0  0  0  0  0  0  0  0  0
   -4.7297    0.4348   -1.4861 C   0  0  0  0  0  0  0  0  0  0  0  0
   -5.6657   -0.0698   -2.5605 C   0  0  0  0  0  0  0  0  0  0  0  0
   -6.8040    0.7442   -2.6316 O   0  0  0  0  0  0  0  0  0  0  0  0
   -4.7955   -0.1375   -0.2082 C   0  0  0  0  0  0  0  0  0  0  0  0
   -3.9885    0.3112    0.8671 C   0  0  0  0  0  0  0  0  0  0  0  0
   -4.2915   -0.2419    2.2907 C   0  0  0  0  0  0  0  0  0  0  0  0
   -3.6238   -1.6187    2.4447 C   0  0  0  0  0  0  0  0  0  0  0  0
   -3.8212    0.7020    3.4271 C   0  0  0  0  0  0  0  0  0  0  0  0
   -5.8241   -0.4177    2.5047 C   0  0  0  0  0  0  0  0  0  0  0  0
    0.0659   -0.6587    1.4711 C   0  0  0  0  0  0  0  0  0  0  0  0
   -0.2166   -0.8809    2.8183 O   0  0  0  0  0  0  0  0  0  0  0  0
    0.8718   -1.6052    0.8138 O   0  0  0  0  0  0  0  0  0  0  0  0
    0.9277   -4.6238   -1.6628 H   0  0  0  0  0  0  0  0  0  0  0  0
    0.0412   -3.7016   -0.3974 H   0  0  0  0  0  0  0  0  0  0  0  0
    0.0126   -3.1846   -2.1337 H   0  0  0  0  0  0  0  0  0  0  0  0
    2.3530   -2.5598   -2.0863 H   0  0  0  0  0  0  0  0  0  0  0  0
    3.0573   -4.5688   -0.7123 H   0  0  0  0  0  0  0  0  0  0  0  0
    3.9070   -3.0826   -0.2444 H   0  0  0  0  0  0  0  0  0  0  0  0
    2.5482   -3.6965    0.7817 H   0  0  0  0  0  0  0  0  0  0  0  0
    3.4193   -1.0856    0.7376 H   0  0  0  0  0  0  0  0  0  0  0  0
    2.5740    0.4234    0.4078 H   0  0  0  0  0  0  0  0  0  0  0  0
    3.3131    0.3990   -1.9826 H   0  0  0  0  0  0  0  0  0  0  0  0
    4.1326   -1.1808   -1.7328 H   0  0  0  0  0  0  0  0  0  0  0  0
    5.9875    4.3244   -0.0403 H   0  0  0  0  0  0  0  0  0  0  0  0
    8.2305    4.7747    0.9501 H   0  0  0  0  0  0  0  0  0  0  0  0
    9.7701    2.8946    1.4725 H   0  0  0  0  0  0  0  0  0  0  0  0
    9.0768    0.5404    1.0075 H   0  0  0  0  0  0  0  0  0  0  0  0
   -0.2400   -1.0756   -1.6609 H   0  0  0  0  0  0  0  0  0  0  0  0
    1.1699   -0.1606   -2.2511 H   0  0  0  0  0  0  0  0  0  0  0  0
   -2.2465    2.6702   -0.8961 H   0  0  0  0  0  0  0  0  0  0  0  0
   -3.2263    3.1725   -2.9685 H   0  0  0  0  0  0  0  0  0  0  0  0
   -3.2863    1.5667   -3.7839 H   0  0  0  0  0  0  0  0  0  0  0  0
   -4.8127    2.4654   -3.3986 H   0  0  0  0  0  0  0  0  0  0  0  0
   -5.1575   -0.0679   -3.5471 H   0  0  0  0  0  0  0  0  0  0  0  0
   -5.9613   -1.1269   -2.3700 H   0  0  0  0  0  0  0  0  0  0  0  0
   -7.3638    0.5176   -1.8434 H   0  0  0  0  0  0  0  0  0  0  0  0
   -5.5011   -0.9408   -0.0648 H   0  0  0  0  0  0  0  0  0  0  0  0
   -3.7682   -2.0154    3.4730 H   0  0  0  0  0  0  0  0  0  0  0  0
   -2.5405   -1.5506    2.2392 H   0  0  0  0  0  0  0  0  0  0  0  0
   -4.0547   -2.3469    1.7241 H   0  0  0  0  0  0  0  0  0  0  0  0
   -4.3173    0.4659    4.3931 H   0  0  0  0  0  0  0  0  0  0  0  0
   -2.7466    0.5876    3.6447 H   0  0  0  0  0  0  0  0  0  0  0  0
   -4.0521    1.7608    3.1811 H   0  0  0  0  0  0  0  0  0  0  0  0
   -6.0631   -0.6608    3.5628 H   0  0  0  0  0  0  0  0  0  0  0  0
   -6.3633    0.5159    2.2340 H   0  0  0  0  0  0  0  0  0  0  0  0
   -6.2438   -1.2610    1.9199 H   0  0  0  0  0  0  0  0  0  0  0  0
   -0.6497   -0.1898    3.4140 H   0  0  0  0  0  0  0  0  0  0  0  0
  1  2  1  0
  2  3  1  0
  2  4  1  0
  4  5  1  0
  5  6  1  0
  6  7  1  0
  7  8  2  0
  8  9  1  0
  9 10  2  0
 10 11  1  0
 11 12  2  0
 12 13  1  0
 13 14  2  0
 14 15  1  0
  4 16  1  0
 16 17  1  0
 17 18  2  0
 17 19  1  0
 19 20  1  0
 20 21  1  0
 21 22  2  0
 22 23  1  0
 23 24  1  0
 23 25  2  0
 25 26  1  0
 26 27  1  0
 25 28  1  0
 28 29  2  0
 29 30  1  0
 30 31  1  0
 30 32  1  0
 30 33  1  0
 19 34  2  0
 34 35  1  0
 34 36  1  0
 14  9  1  0
 15  7  1  0
 29 21  1  0
 36  4  1  0
  1 37  1  0
  1 38  1  0
  1 39  1  0
  2 40  1  0
  3 41  1  0
  3 42  1  0
  3 43  1  0
  5 44  1  0
  5 45  1  0
  6 46  1  0
  6 47  1  0
 10 48  1  0
 11 49  1  0
 12 50  1  0
 13 51  1  0
 16 52  1  0
 16 53  1  0
 22 54  1  0
 24 55  1  0
 24 56  1  0
 24 57  1  0
 26 58  1  0
 26 59  1  0
 27 60  1  0
 28 61  1  0
 31 62  1  0
 31 63  1  0
 31 64  1  0
 32 65  1  0
 32 66  1  0
 32 67  1  0
 33 68  1  0
 33 69  1  0
 33 70  1  0
 35 71  1  0
M  END
$$$$
