
     RDKit          3D

 77 81  0  0  0  0  0  0  0  0999 V2000
    2.3345    2.0173    2.1058 C   0  0  0  0  0  0  0  0  0  0  0  0
    3.7654    2.1135    1.5413 C   0  0  0  0  0  0  0  0  0  0  0  0
    3.8557    3.3712    0.6526 C   0  0  0  0  0  0  0  0  0  0  0  0
    4.7851    2.2443    2.6876 C   0  0  0  0  0  0  0  0  0  0  0  0
    4.0736    0.9246    0.7235 N   0  0  0  0  0  0  0  0  0  0  0  0
    3.9586   -0.4351    1.1769 C   0  0  0  0  0  0  0  0  0  0  0  0
    3.7335   -0.7005    2.3875 O   0  0  0  0  0  0  0  0  0  0  0  0
    4.1042   -1.5397    0.2166 C   0  0  0  0  0  0  0  0  0  0  0  0
    5.3764   -1.8065   -0.3110 C   0  0  0  0  0  0  0  0  0  0  0  0
    5.5591   -2.8473   -1.2231 C   0  0  0  0  0  0  0  0  0  0  0  0
    4.4721   -3.6239   -1.6245 C   0  0  0  0  0  0  0  0  0  0  0  0
    3.1971   -3.3592   -1.1197 C   0  0  0  0  0  0  0  0  0  0  0  0
    2.9952   -2.3212   -0.1920 C   0  0  0  0  0  0  0  0  0  0  0  0
    1.5832   -2.0025    0.2550 C   0  0  0  0  0  0  0  0  0  0  0  0
    0.9649   -0.8996   -0.6272 C   0  0  1  0  0  0  0  0  0  0  0  0
    0.7987   -1.3905   -1.9353 O   0  0  0  0  0  0  0  0  0  0  0  0
   -0.3836   -0.3767   -0.0670 C   0  0  2  0  0  0  0  0  0  0  0  0
   -1.5134   -1.4167   -0.1687 C   0  0  0  0  0  0  0  0  0  0  0  0
   -3.0436   -0.7773    0.5969 S   0  0  0  0  0  0  0  0  0  0  0  0
   -4.0092   -2.2233    0.1587 C   0  0  0  0  0  0  0  0  0  0  0  0
   -4.7003   -2.2586   -1.0575 C   0  0  0  0  0  0  0  0  0  0  0  0
   -5.4530   -3.3828   -1.4078 C   0  0  0  0  0  0  0  0  0  0  0  0
   -5.5220   -4.4829   -0.5398 C   0  0  0  0  0  0  0  0  0  0  0  0
   -6.2735   -5.6183   -0.8806 C   0  0  0  0  0  0  0  0  0  0  0  0
   -6.3338   -6.7078   -0.0068 C   0  0  0  0  0  0  0  0  0  0  0  0
   -5.6470   -6.6729    1.2099 C   0  0  0  0  0  0  0  0  0  0  0  0
   -4.8950   -5.5483    1.5618 C   0  0  0  0  0  0  0  0  0  0  0  0
   -4.8259   -4.4475    0.6938 C   0  0  0  0  0  0  0  0  0  0  0  0
   -4.0740   -3.3130    1.0348 C   0  0  0  0  0  0  0  0  0  0  0  0
   -0.7715    0.8365   -0.7974 N   0  0  0  0  0  0  0  0  0  0  0  0
   -1.0628    2.0885   -0.1559 C   0  0  0  0  0  0  0  0  0  0  0  0
   -1.0147    2.1882    1.1002 O   0  0  0  0  0  0  0  0  0  0  0  0
   -1.4658    3.2585   -0.9658 C   0  0  0  0  0  0  0  0  0  0  0  0
   -2.4937    3.0930   -1.9064 C   0  0  0  0  0  0  0  0  0  0  0  0
   -2.9304    4.1797   -2.6626 C   0  0  0  0  0  0  0  0  0  0  0  0
   -2.3606    5.3998   -2.4980 N   0  0  0  0  0  0  0  0  0  0  0  0
   -1.3537    5.6077   -1.6094 C   0  0  0  0  0  0  0  0  0  0  0  0
   -0.7898    6.8835   -1.4922 C   0  0  0  0  0  0  0  0  0  0  0  0
    0.2642    7.1063   -0.6044 C   0  0  0  0  0  0  0  0  0  0  0  0
    0.7642    6.0558    0.1666 C   0  0  0  0  0  0  0  0  0  0  0  0
    0.2071    4.7783    0.0631 C   0  0  0  0  0  0  0  0  0  0  0  0
   -0.8695    4.5363   -0.8160 C   0  0  0  0  0  0  0  0  0  0  0  0
    1.6214    1.7921    1.2863 H   0  0  0  0  0  0  0  0  0  0  0  0
    2.2466    1.2194    2.8706 H   0  0  0  0  0  0  0  0  0  0  0  0
    2.0358    2.9729    2.5883 H   0  0  0  0  0  0  0  0  0  0  0  0
    3.1313    3.3040   -0.1880 H   0  0  0  0  0  0  0  0  0  0  0  0
    3.6285    4.2893    1.2369 H   0  0  0  0  0  0  0  0  0  0  0  0
    4.8765    3.4725    0.2249 H   0  0  0  0  0  0  0  0  0  0  0  0
    5.8192    2.2669    2.2813 H   0  0  0  0  0  0  0  0  0  0  0  0
    4.6102    3.1803    3.2611 H   0  0  0  0  0  0  0  0  0  0  0  0
    4.7089    1.3945    3.3962 H   0  0  0  0  0  0  0  0  0  0  0  0
    4.3296    1.0604   -0.2818 H   0  0  0  0  0  0  0  0  0  0  0  0
    6.2297   -1.2105   -0.0099 H   0  0  0  0  0  0  0  0  0  0  0  0
    6.5448   -3.0502   -1.6216 H   0  0  0  0  0  0  0  0  0  0  0  0
    4.6153   -4.4259   -2.3371 H   0  0  0  0  0  0  0  0  0  0  0  0
    2.3622   -3.9574   -1.4634 H   0  0  0  0  0  0  0  0  0  0  0  0
    1.5817   -1.6869    1.3192 H   0  0  0  0  0  0  0  0  0  0  0  0
    0.9648   -2.9237    0.2023 H   0  0  0  0  0  0  0  0  0  0  0  0
    1.6773   -0.0393   -0.6293 H   0  0  0  0  0  0  0  0  0  0  0  0
    0.9596   -0.6337   -2.5571 H   0  0  0  0  0  0  0  0  0  0  0  0
   -0.2328   -0.1385    1.0091 H   0  0  0  0  0  0  0  0  0  0  0  0
   -1.7104   -1.6601   -1.2352 H   0  0  0  0  0  0  0  0  0  0  0  0
   -1.2295   -2.3469    0.3646 H   0  0  0  0  0  0  0  0  0  0  0  0
   -4.6514   -1.4153   -1.7348 H   0  0  0  0  0  0  0  0  0  0  0  0
   -5.9792   -3.3925   -2.3549 H   0  0  0  0  0  0  0  0  0  0  0  0
   -6.8122   -5.6629   -1.8197 H   0  0  0  0  0  0  0  0  0  0  0  0
   -6.9143   -7.5815   -0.2733 H   0  0  0  0  0  0  0  0  0  0  0  0
   -5.6977   -7.5198    1.8820 H   0  0  0  0  0  0  0  0  0  0  0  0
   -4.3689   -5.5390    2.5090 H   0  0  0  0  0  0  0  0  0  0  0  0
   -3.5358   -3.2743    1.9747 H   0  0  0  0  0  0  0  0  0  0  0  0
   -0.8779    0.7747   -1.8353 H   0  0  0  0  0  0  0  0  0  0  0  0
   -2.9733    2.1305   -2.0390 H   0  0  0  0  0  0  0  0  0  0  0  0
   -3.7299    4.0533   -3.3802 H   0  0  0  0  0  0  0  0  0  0  0  0
   -1.1628    7.7026   -2.0948 H   0  0  0  0  0  0  0  0  0  0  0  0
    0.7001    8.0934   -0.5200 H   0  0  0  0  0  0  0  0  0  0  0  0
    1.5901    6.2303    0.8443 H   0  0  0  0  0  0  0  0  0  0  0  0
    0.6364    3.9902    0.6618 H   0  0  0  0  0  0  0  0  0  0  0  0
  1  2  1  0
  2  3  1  0
  2  4  1  0
  2  5  1  0
  5  6  1  0
  6  7  2  0
  6  8  1  0
  8  9  2  0
  9 10  1  0
 10 11  2  0
 11 12  1  0
 12 13  2  0
 13 14  1  0
 14 15  1  0
 15 16  1  0
 15 17  1  0
 17 18  1  0
 18 19  1  0
 19 20  1  0
 20 21  2  0
 21 22  1  0
 22 23  2  0
 23 24  1  0
 24 25  2  0
 25 26  1  0
 26 27  2  0
 27 28  1  0
 28 29  2  0
 17 30  1  0
 30 31  1  0
 31 32  2  0
 31 33  1  0
 33 34  2  0
 34 35  1  0
 35 36  2  0
 36 37  1  0
 37 38  2  0
 38 39  1  0
 39 40  2  0
 40 41  1  0
 41 42  2  0
 13  8  1  0
 28 23  1  0
 29 20  1  0
 42 33  1  0
 42 37  1  0
  1 43  1  0
  1 44  1  0
  1 45  1  0
  3 46  1  0
  3 47  1  0
  3 48  1  0
  4 49  1  0
  4 50  1  0
  4 51  1  0
  5 52  1  0
  9 53  1  0
 10 54  1  0
 11 55  1  0
 12 56  1  0
 14 57  1  0
 14 58  1  0
 15 59  1  6
 16 60  1  0
 17 61  1  1
 18 62  1  0
 18 63  1  0
 21 64  1  0
 22 65  1  0
 24 66  1  0
 25 67  1  0
 26 68  1  0
 27 69  1  0
 29 70  1  0
 30 71  1  0
 34 72  1  0
 35 73  1  0
 38 74  1  0
 39 75  1  0
 40 76  1  0
 41 77  1  0
M  END
$$$$
