
     RDKit          3D

 77 80  0  0  0  0  0  0  0  0999 V2000
    5.1468    2.6836   -0.7460 C   0  0  0  0  0  0  0  0  0  0  0  0
    5.9274    1.4003   -0.9152 C   0  0  0  0  0  0  0  0  0  0  0  0
    7.2876    1.4490   -1.3154 C   0  0  0  0  0  0  0  0  0  0  0  0
    7.9812    2.6535   -1.4588 O   0  0  0  0  0  0  0  0  0  0  0  0
    7.9833    0.2643   -1.5724 C   0  0  0  0  0  0  0  0  0  0  0  0
    7.3644   -0.9714   -1.4062 C   0  0  0  0  0  0  0  0  0  0  0  0
    6.0475   -1.0384   -0.9589 C   0  0  0  0  0  0  0  0  0  0  0  0
    5.3205    0.1335   -0.6903 C   0  0  0  0  0  0  0  0  0  0  0  0
    3.9558   -0.0055   -0.1331 C   0  0  0  0  0  0  0  0  0  0  0  0
    3.6122    0.7064    0.8488 O   0  0  0  0  0  0  0  0  0  0  0  0
    3.0488   -0.9801   -0.6787 N   0  0  0  0  0  0  0  0  0  0  0  0
    1.7663   -1.3634   -0.0705 C   0  0  2  0  0  0  0  0  0  0  0  0
    0.7800   -0.1711   -0.1027 C   0  0  0  0  0  0  0  0  0  0  0  0
   -0.6777   -0.5592    0.2387 C   0  0  2  0  0  0  0  0  0  0  0  0
   -1.0747   -1.6217   -0.5938 O   0  0  0  0  0  0  0  0  0  0  0  0
   -1.6594    0.6257    0.0422 C   0  0  2  0  0  0  0  0  0  0  0  0
   -1.3749    1.7953    1.0112 C   0  0  0  0  0  0  0  0  0  0  0  0
   -2.4041    2.8893    0.8740 C   0  0  0  0  0  0  0  0  0  0  0  0
   -3.4434    3.0107    1.8118 C   0  0  0  0  0  0  0  0  0  0  0  0
   -4.4289    3.9889    1.6485 C   0  0  0  0  0  0  0  0  0  0  0  0
   -4.3840    4.8520    0.5504 C   0  0  0  0  0  0  0  0  0  0  0  0
   -3.3537    4.7377   -0.3870 C   0  0  0  0  0  0  0  0  0  0  0  0
   -2.3676    3.7592   -0.2288 C   0  0  0  0  0  0  0  0  0  0  0  0
   -3.0350    0.1506    0.2429 N   0  0  0  0  0  0  0  0  0  0  0  0
   -4.1011    0.4231   -0.6824 C   0  0  0  0  0  0  0  0  0  0  0  0
   -3.8517    0.9852   -1.7833 O   0  0  0  0  0  0  0  0  0  0  0  0
   -5.5008    0.0710   -0.3408 C   0  0  0  0  0  0  0  0  0  0  0  0
   -5.9559    0.3163    0.9664 C   0  0  0  0  0  0  0  0  0  0  0  0
   -7.2773    0.0535    1.3221 C   0  0  0  0  0  0  0  0  0  0  0  0
   -8.1681   -0.4522    0.3790 C   0  0  0  0  0  0  0  0  0  0  0  0
   -7.7414   -0.7143   -0.9285 C   0  0  0  0  0  0  0  0  0  0  0  0
   -8.6524   -1.2115   -1.8613 O   0  0  0  0  0  0  0  0  0  0  0  0
   -6.3986   -0.4767   -1.2975 C   0  0  0  0  0  0  0  0  0  0  0  0
   -5.9458   -0.7943   -2.7030 C   0  0  0  0  0  0  0  0  0  0  0  0
    1.9684   -1.9315    1.3532 C   0  0  0  0  0  0  0  0  0  0  0  0
    3.0114   -3.0211    1.3743 C   0  0  0  0  0  0  0  0  0  0  0  0
    4.3042   -2.7620    1.8616 C   0  0  0  0  0  0  0  0  0  0  0  0
    5.2796   -3.7634    1.8387 C   0  0  0  0  0  0  0  0  0  0  0  0
    4.9729   -5.0284    1.3306 C   0  0  0  0  0  0  0  0  0  0  0  0
    3.6901   -5.2943    0.8440 C   0  0  0  0  0  0  0  0  0  0  0  0
    2.7121   -4.2951    0.8630 C   0  0  0  0  0  0  0  0  0  0  0  0
    4.0536    2.5218   -0.8360 H   0  0  0  0  0  0  0  0  0  0  0  0
    5.3728    3.1324    0.2436 H   0  0  0  0  0  0  0  0  0  0  0  0
    5.3996    3.4049   -1.5503 H   0  0  0  0  0  0  0  0  0  0  0  0
    7.5977    3.5530   -1.2002 H   0  0  0  0  0  0  0  0  0  0  0  0
    9.0167    0.3034   -1.8932 H   0  0  0  0  0  0  0  0  0  0  0  0
    7.9155   -1.8823   -1.6017 H   0  0  0  0  0  0  0  0  0  0  0  0
    5.6037   -2.0129   -0.7954 H   0  0  0  0  0  0  0  0  0  0  0  0
    3.3277   -1.4748   -1.5562 H   0  0  0  0  0  0  0  0  0  0  0  0
    1.3385   -2.1783   -0.6956 H   0  0  0  0  0  0  0  0  0  0  0  0
    0.8023    0.2757   -1.1212 H   0  0  0  0  0  0  0  0  0  0  0  0
    1.1296    0.5995    0.6122 H   0  0  0  0  0  0  0  0  0  0  0  0
   -0.7156   -0.8728    1.3086 H   0  0  0  0  0  0  0  0  0  0  0  0
   -1.7018   -2.1873   -0.0715 H   0  0  0  0  0  0  0  0  0  0  0  0
   -1.5336    0.9987   -0.9985 H   0  0  0  0  0  0  0  0  0  0  0  0
   -1.3507    1.4191    2.0577 H   0  0  0  0  0  0  0  0  0  0  0  0
   -0.3800    2.2380    0.7973 H   0  0  0  0  0  0  0  0  0  0  0  0
   -3.4971    2.3419    2.6617 H   0  0  0  0  0  0  0  0  0  0  0  0
   -5.2300    4.0747    2.3711 H   0  0  0  0  0  0  0  0  0  0  0  0
   -5.1487    5.6075    0.4245 H   0  0  0  0  0  0  0  0  0  0  0  0
   -3.3222    5.4040   -1.2393 H   0  0  0  0  0  0  0  0  0  0  0  0
   -1.5816    3.6721   -0.9687 H   0  0  0  0  0  0  0  0  0  0  0  0
   -3.2549   -0.3474    1.1354 H   0  0  0  0  0  0  0  0  0  0  0  0
   -5.2951    0.7383    1.7120 H   0  0  0  0  0  0  0  0  0  0  0  0
   -7.6157    0.2558    2.3302 H   0  0  0  0  0  0  0  0  0  0  0  0
   -9.1952   -0.6399    0.6652 H   0  0  0  0  0  0  0  0  0  0  0  0
   -9.6200   -1.3893   -1.6183 H   0  0  0  0  0  0  0  0  0  0  0  0
   -5.9339    0.1354   -3.3092 H   0  0  0  0  0  0  0  0  0  0  0  0
   -6.6134   -1.5305   -3.1967 H   0  0  0  0  0  0  0  0  0  0  0  0
   -4.9312   -1.2452   -2.6930 H   0  0  0  0  0  0  0  0  0  0  0  0
    1.0128   -2.3614    1.7215 H   0  0  0  0  0  0  0  0  0  0  0  0
    2.2433   -1.1191    2.0596 H   0  0  0  0  0  0  0  0  0  0  0  0
    4.5599   -1.7844    2.2505 H   0  0  0  0  0  0  0  0  0  0  0  0
    6.2746   -3.5570    2.2111 H   0  0  0  0  0  0  0  0  0  0  0  0
    5.7296   -5.8020    1.3123 H   0  0  0  0  0  0  0  0  0  0  0  0
    3.4544   -6.2737    0.4484 H   0  0  0  0  0  0  0  0  0  0  0  0
    1.7241   -4.5110    0.4754 H   0  0  0  0  0  0  0  0  0  0  0  0
  1  2  1  0
  2  3  2  0
  3  4  1  0
  3  5  1  0
  5  6  2  0
  6  7  1  0
  7  8  2  0
  8  9  1  0
  9 10  2  0
  9 11  1  0
 11 12  1  0
 12 13  1  0
 13 14  1  0
 14 15  1  0
 14 16  1  0
 16 17  1  0
 17 18  1  0
 18 19  2  0
 19 20  1  0
 20 21  2  0
 21 22  1  0
 22 23  2  0
 16 24  1  0
 24 25  1  0
 25 26  2  0
 25 27  1  0
 27 28  2  0
 28 29  1  0
 29 30  2  0
 30 31  1  0
 31 32  1  0
 31 33  2  0
 33 34  1  0
 12 35  1  0
 35 36  1  0
 36 37  2  0
 37 38  1  0
 38 39  2  0
 39 40  1  0
 40 41  2  0
  8  2  1  0
 23 18  1  0
 33 27  1  0
 41 36  1  0
  1 42  1  0
  1 43  1  0
  1 44  1  0
  4 45  1  0
  5 46  1  0
  6 47  1  0
  7 48  1  0
 11 49  1  0
 12 50  1  6
 13 51  1  0
 13 52  1  0
 14 53  1  1
 15 54  1  0
 16 55  1  6
 17 56  1  0
 17 57  1  0
 19 58  1  0
 20 59  1  0
 21 60  1  0
 22 61  1  0
 23 62  1  0
 24 63  1  0
 28 64  1  0
 29 65  1  0
 30 66  1  0
 32 67  1  0
 34 68  1  0
 34 69  1  0
 34 70  1  0
 35 71  1  0
 35 72  1  0
 37 73  1  0
 38 74  1  0
 39 75  1  0
 40 76  1  0
 41 77  1  0
M  END
$$$$
