
     RDKit          3D

 79 80  0  0  0  0  0  0  0  0999 V2000
    8.1660    0.9191   -0.8132 C   0  0  0  0  0  0  0  0  0  0  0  0
    7.4652   -0.4276   -1.0592 C   0  0  0  0  0  0  0  0  0  0  0  0
    8.4973   -1.5650   -1.0868 C   0  0  0  0  0  0  0  0  0  0  0  0
    6.5579   -0.4346   -2.3249 C   0  0  2  0  0  0  0  0  0  0  0  0
    7.3013   -0.0962   -3.6304 C   0  0  0  0  0  0  0  0  0  0  0  0
    5.3574    0.4643   -2.1286 C   0  0  0  0  0  0  0  0  0  0  0  0
    5.3917    1.6592   -2.5333 O   0  0  0  0  0  0  0  0  0  0  0  0
    4.2054   -0.0343   -1.4280 N   0  0  0  0  0  0  0  0  0  0  0  0
    3.0134    0.7360   -1.1908 C   0  0  0  0  0  0  0  0  0  0  0  0
    2.9217    1.9184   -1.6197 O   0  0  0  0  0  0  0  0  0  0  0  0
    1.8495    0.1426   -0.4313 C   0  0  2  0  0  0  0  0  0  0  0  0
    2.2461   -0.1771    0.8786 O   0  0  0  0  0  0  0  0  0  0  0  0
    1.2454   -1.0781   -1.1779 C   0  0  2  0  0  0  0  0  0  0  0  0
    0.8954   -0.6830   -2.4820 O   0  0  0  0  0  0  0  0  0  0  0  0
    0.0102   -1.7206   -0.4782 C   0  0  1  0  0  0  0  0  0  0  0  0
    0.4127   -2.4752    0.6412 O   0  0  0  0  0  0  0  0  0  0  0  0
   -1.1227   -0.7224   -0.1214 C   0  0  1  0  0  0  0  0  0  0  0  0
   -1.4970    0.0184   -1.2858 O   0  0  0  0  0  0  0  0  0  0  0  0
   -2.3030    1.1684   -1.2951 C   0  0  0  0  0  0  0  0  0  0  0  0
   -2.5725    1.7748   -2.5255 C   0  0  0  0  0  0  0  0  0  0  0  0
   -3.3685    2.9213   -2.5966 C   0  0  0  0  0  0  0  0  0  0  0  0
   -3.9188    3.4826   -1.4289 C   0  0  0  0  0  0  0  0  0  0  0  0
   -4.7614    4.7052   -1.4793 C   0  0  0  0  0  0  0  0  0  0  0  0
   -5.5487    5.0160   -2.6041 C   0  0  0  0  0  0  0  0  0  0  0  0
   -6.3270    6.1756   -2.6006 C   0  0  0  0  0  0  0  0  0  0  0  0
   -6.3241    7.0128   -1.4851 C   0  0  0  0  0  0  0  0  0  0  0  0
   -5.5420    6.6735   -0.3809 C   0  0  0  0  0  0  0  0  0  0  0  0
   -4.7897    5.5412   -0.4019 N   0  0  0  0  0  0  0  0  0  0  0  0
   -3.6361    2.8781   -0.1912 C   0  0  0  0  0  0  0  0  0  0  0  0
   -2.8401    1.7312   -0.1227 C   0  0  0  0  0  0  0  0  0  0  0  0
   -2.3158   -1.4713    0.4143 C   0  0  0  0  0  0  0  0  0  0  0  0
   -3.1044   -2.0363   -0.3918 O   0  0  0  0  0  0  0  0  0  0  0  0
   -2.5189   -1.5748    1.8329 N   0  0  0  0  0  0  0  0  0  0  0  0
   -3.5854   -2.3225    2.4401 C   0  0  0  0  0  0  0  0  0  0  0  0
   -4.4533   -2.8940    1.7242 O   0  0  0  0  0  0  0  0  0  0  0  0
   -3.6408   -2.4626    3.9458 C   0  0  1  0  0  0  0  0  0  0  0  0
   -5.0870   -2.3693    4.4584 C   0  0  0  0  0  0  0  0  0  0  0  0
   -2.9144   -3.7422    4.4559 C   0  0  0  0  0  0  0  0  0  0  0  0
   -3.4836   -5.0476    3.8737 C   0  0  0  0  0  0  0  0  0  0  0  0
   -1.4017   -3.6677    4.1950 C   0  0  0  0  0  0  0  0  0  0  0  0
    8.9153    1.1320   -1.6039 H   0  0  0  0  0  0  0  0  0  0  0  0
    8.6933    0.8955    0.1644 H   0  0  0  0  0  0  0  0  0  0  0  0
    7.4280    1.7469   -0.7774 H   0  0  0  0  0  0  0  0  0  0  0  0
    6.8105   -0.6209   -0.1793 H   0  0  0  0  0  0  0  0  0  0  0  0
    9.2644   -1.3930   -1.8704 H   0  0  0  0  0  0  0  0  0  0  0  0
    9.0134   -1.6312   -0.1051 H   0  0  0  0  0  0  0  0  0  0  0  0
    7.9970   -2.5385   -1.2760 H   0  0  0  0  0  0  0  0  0  0  0  0
    6.1651   -1.4682   -2.4512 H   0  0  0  0  0  0  0  0  0  0  0  0
    7.7181    0.9321   -3.6067 H   0  0  0  0  0  0  0  0  0  0  0  0
    6.5995   -0.1655   -4.4892 H   0  0  0  0  0  0  0  0  0  0  0  0
    8.1240   -0.8169   -3.8140 H   0  0  0  0  0  0  0  0  0  0  0  0
    4.2437   -1.0147   -1.0707 H   0  0  0  0  0  0  0  0  0  0  0  0
    1.0691    0.9300   -0.3608 H   0  0  0  0  0  0  0  0  0  0  0  0
    2.8723   -0.9455    0.8304 H   0  0  0  0  0  0  0  0  0  0  0  0
    2.0334   -1.8650   -1.2431 H   0  0  0  0  0  0  0  0  0  0  0  0
    0.8625   -1.5053   -3.0378 H   0  0  0  0  0  0  0  0  0  0  0  0
   -0.4159   -2.4485   -1.2045 H   0  0  0  0  0  0  0  0  0  0  0  0
    0.5091   -1.8626    1.4147 H   0  0  0  0  0  0  0  0  0  0  0  0
   -0.7500   -0.0203    0.6547 H   0  0  0  0  0  0  0  0  0  0  0  0
   -2.1556    1.3578   -3.4337 H   0  0  0  0  0  0  0  0  0  0  0  0
   -3.5290    3.3771   -3.5644 H   0  0  0  0  0  0  0  0  0  0  0  0
   -5.5854    4.3638   -3.4662 H   0  0  0  0  0  0  0  0  0  0  0  0
   -6.9374    6.4211   -3.4601 H   0  0  0  0  0  0  0  0  0  0  0  0
   -6.9259    7.9123   -1.4741 H   0  0  0  0  0  0  0  0  0  0  0  0
   -5.5328    7.3095    0.4941 H   0  0  0  0  0  0  0  0  0  0  0  0
   -4.0421    3.2854    0.7264 H   0  0  0  0  0  0  0  0  0  0  0  0
   -2.6533    1.2930    0.8473 H   0  0  0  0  0  0  0  0  0  0  0  0
   -1.8309   -1.1025    2.4615 H   0  0  0  0  0  0  0  0  0  0  0  0
   -3.1160   -1.5859    4.3872 H   0  0  0  0  0  0  0  0  0  0  0  0
   -5.1088   -2.4522    5.5659 H   0  0  0  0  0  0  0  0  0  0  0  0
   -5.5226   -1.3860    4.1787 H   0  0  0  0  0  0  0  0  0  0  0  0
   -5.7266   -3.1670    4.0271 H   0  0  0  0  0  0  0  0  0  0  0  0
   -3.0446   -3.7882    5.5604 H   0  0  0  0  0  0  0  0  0  0  0  0
   -3.3480   -5.0872    2.7724 H   0  0  0  0  0  0  0  0  0  0  0  0
   -2.9585   -5.9199    4.3187 H   0  0  0  0  0  0  0  0  0  0  0  0
   -4.5610   -5.1525    4.1135 H   0  0  0  0  0  0  0  0  0  0  0  0
   -0.9803   -2.7337    4.6238 H   0  0  0  0  0  0  0  0  0  0  0  0
   -1.1844   -3.6942    3.1059 H   0  0  0  0  0  0  0  0  0  0  0  0
   -0.8887   -4.5273    4.6767 H   0  0  0  0  0  0  0  0  0  0  0  0
  1  2  1  0
  2  3  1  0
  2  4  1  0
  4  5  1  0
  4  6  1  0
  6  7  2  0
  6  8  1  0
  8  9  1  0
  9 10  2  0
  9 11  1  0
 11 12  1  0
 11 13  1  0
 13 14  1  0
 13 15  1  0
 15 16  1  0
 15 17  1  0
 17 18  1  0
 18 19  1  0
 19 20  2  0
 20 21  1  0
 21 22  2  0
 22 23  1  0
 23 24  2  0
 24 25  1  0
 25 26  2  0
 26 27  1  0
 27 28  2  0
 22 29  1  0
 29 30  2  0
 17 31  1  0
 31 32  2  0
 31 33  1  0
 33 34  1  0
 34 35  2  0
 34 36  1  0
 36 37  1  0
 36 38  1  0
 38 39  1  0
 38 40  1  0
 28 23  1  0
 30 19  1  0
  1 41  1  0
  1 42  1  0
  1 43  1  0
  2 44  1  0
  3 45  1  0
  3 46  1  0
  3 47  1  0
  4 48  1  6
  5 49  1  0
  5 50  1  0
  5 51  1  0
  8 52  1  0
 11 53  1  1
 12 54  1  0
 13 55  1  6
 14 56  1  0
 15 57  1  6
 16 58  1  0
 17 59  1  1
 20 60  1  0
 21 61  1  0
 24 62  1  0
 25 63  1  0
 26 64  1  0
 27 65  1  0
 29 66  1  0
 30 67  1  0
 33 68  1  0
 36 69  1  1
 37 70  1  0
 37 71  1  0
 37 72  1  0
 38 73  1  0
 39 74  1  0
 39 75  1  0
 39 76  1  0
 40 77  1  0
 40 78  1  0
 40 79  1  0
M  END
$$$$
