
     RDKit          3D

 72 75  0  0  0  0  0  0  0  0999 V2000
   -5.2508   -4.0567   -1.2459 C   0  0  0  0  0  0  0  0  0  0  0  0
   -5.3640   -3.5440    0.1891 C   0  0  0  0  0  0  0  0  0  0  0  0
   -5.1021   -2.0311    0.3254 C   0  0  0  0  0  0  0  0  0  0  0  0
   -3.6381   -1.6028    0.0706 C   0  0  0  0  0  0  0  0  0  0  0  0
   -3.4681   -0.1201    0.5000 C   0  0  0  0  0  0  0  0  0  0  0  0
   -2.0502    0.4354    0.2861 C   0  0  0  0  0  0  0  0  0  0  0  0
   -1.9621    1.8790    0.7013 C   0  0  0  0  0  0  0  0  0  0  0  0
   -1.7705    2.2157    2.0516 C   0  0  0  0  0  0  0  0  0  0  0  0
   -1.6889    3.5571    2.4379 C   0  0  0  0  0  0  0  0  0  0  0  0
   -1.7999    4.5696    1.4810 C   0  0  0  0  0  0  0  0  0  0  0  0
   -1.9994    4.2426    0.1371 C   0  0  0  0  0  0  0  0  0  0  0  0
   -2.0856    2.9027   -0.2530 C   0  0  0  0  0  0  0  0  0  0  0  0
   -2.7662   -2.4377    0.8446 O   0  0  0  0  0  0  0  0  0  0  0  0
   -1.4669   -2.7770    0.4427 C   0  0  0  0  0  0  0  0  0  0  0  0
   -0.5862   -3.2703    1.3991 O   0  0  0  0  0  0  0  0  0  0  0  0
   -1.0792   -2.6054   -0.8356 C   0  0  0  0  0  0  0  0  0  0  0  0
    0.3728   -2.7510   -1.2781 C   0  0  0  0  0  0  0  0  0  0  0  0
    0.8682   -4.2131   -1.1615 C   0  0  0  0  0  0  0  0  0  0  0  0
    2.2259   -4.4221   -1.8346 C   0  0  0  0  0  0  0  0  0  0  0  0
    1.2203   -1.6920   -0.5810 C   0  0  0  0  0  0  0  0  0  0  0  0
    2.0120   -1.9655    0.5514 C   0  0  0  0  0  0  0  0  0  0  0  0
    2.6623   -0.9305    1.2257 C   0  0  0  0  0  0  0  0  0  0  0  0
    2.5084    0.3918    0.8068 C   0  0  0  0  0  0  0  0  0  0  0  0
    1.7064    0.6936   -0.3073 C   0  0  0  0  0  0  0  0  0  0  0  0
    1.4781    2.0471   -0.7397 N   0  0  0  0  0  0  0  0  0  0  0  0
    1.9833    3.4494    0.1488 S   0  0  0  0  0  0  0  0  0  0  0  0
    1.4732    3.3482    1.5592 O   0  0  0  0  0  0  0  0  0  0  0  0
    1.4018    4.6768   -0.4934 O   0  0  0  0  0  0  0  0  0  0  0  0
    3.7387    3.5732    0.1356 C   0  0  0  0  0  0  0  0  0  0  0  0
    4.4684    3.0995   -0.9633 C   0  0  0  0  0  0  0  0  0  0  0  0
    5.8638    3.1893   -0.9723 C   0  0  0  0  0  0  0  0  0  0  0  0
    6.5378    3.7571    0.1164 C   0  0  0  0  0  0  0  0  0  0  0  0
    7.9742    3.8491    0.1076 C   0  0  0  0  0  0  0  0  0  0  0  0
    9.1291    3.9231    0.1006 N   0  0  0  0  0  0  0  0  0  0  0  0
    5.8100    4.2364    1.2131 C   0  0  0  0  0  0  0  0  0  0  0  0
    4.4145    4.1458    1.2219 C   0  0  0  0  0  0  0  0  0  0  0  0
    1.0912   -0.3562   -1.0049 C   0  0  0  0  0  0  0  0  0  0  0  0
   -2.1047   -2.1394   -1.7930 C   0  0  0  0  0  0  0  0  0  0  0  0
   -1.8750   -2.1161   -3.0309 O   0  0  0  0  0  0  0  0  0  0  0  0
   -3.3542   -1.7317   -1.3248 O   0  0  0  0  0  0  0  0  0  0  0  0
   -5.6767   -5.0805   -1.3056 H   0  0  0  0  0  0  0  0  0  0  0  0
   -4.1882   -4.1158   -1.5569 H   0  0  0  0  0  0  0  0  0  0  0  0
   -5.8120   -3.4001   -1.9440 H   0  0  0  0  0  0  0  0  0  0  0  0
   -4.6782   -4.1206    0.8460 H   0  0  0  0  0  0  0  0  0  0  0  0
   -6.3989   -3.7441    0.5425 H   0  0  0  0  0  0  0  0  0  0  0  0
   -5.3845   -1.7457    1.3629 H   0  0  0  0  0  0  0  0  0  0  0  0
   -5.7801   -1.4751   -0.3594 H   0  0  0  0  0  0  0  0  0  0  0  0
   -3.7247   -0.0228    1.5783 H   0  0  0  0  0  0  0  0  0  0  0  0
   -4.1845    0.5065   -0.0767 H   0  0  0  0  0  0  0  0  0  0  0  0
   -1.3166   -0.1472    0.8816 H   0  0  0  0  0  0  0  0  0  0  0  0
   -1.7685    0.3465   -0.7833 H   0  0  0  0  0  0  0  0  0  0  0  0
   -1.6805    1.4400    2.8020 H   0  0  0  0  0  0  0  0  0  0  0  0
   -1.5360    3.8115    3.4787 H   0  0  0  0  0  0  0  0  0  0  0  0
   -1.7321    5.6073    1.7810 H   0  0  0  0  0  0  0  0  0  0  0  0
   -2.0867    5.0276   -0.6028 H   0  0  0  0  0  0  0  0  0  0  0  0
   -2.2414    2.6638   -1.2977 H   0  0  0  0  0  0  0  0  0  0  0  0
   -0.8803   -3.3842    2.3611 H   0  0  0  0  0  0  0  0  0  0  0  0
    0.4279   -2.5190   -2.3645 H   0  0  0  0  0  0  0  0  0  0  0  0
    0.1342   -4.8767   -1.6696 H   0  0  0  0  0  0  0  0  0  0  0  0
    0.9255   -4.5517   -0.1081 H   0  0  0  0  0  0  0  0  0  0  0  0
    2.1697   -4.1520   -2.9105 H   0  0  0  0  0  0  0  0  0  0  0  0
    3.0095   -3.8075   -1.3456 H   0  0  0  0  0  0  0  0  0  0  0  0
    2.5179   -5.4904   -1.7546 H   0  0  0  0  0  0  0  0  0  0  0  0
    2.1249   -2.9698    0.9319 H   0  0  0  0  0  0  0  0  0  0  0  0
    3.2726   -1.1526    2.0917 H   0  0  0  0  0  0  0  0  0  0  0  0
    3.0134    1.1670    1.3638 H   0  0  0  0  0  0  0  0  0  0  0  0
    0.9225    2.2154   -1.6082 H   0  0  0  0  0  0  0  0  0  0  0  0
    3.9590    2.6600   -1.8114 H   0  0  0  0  0  0  0  0  0  0  0  0
    6.4161    2.8169   -1.8268 H   0  0  0  0  0  0  0  0  0  0  0  0
    6.3205    4.6792    2.0599 H   0  0  0  0  0  0  0  0  0  0  0  0
    3.8632    4.5209    2.0747 H   0  0  0  0  0  0  0  0  0  0  0  0
    0.4646   -0.1265   -1.8586 H   0  0  0  0  0  0  0  0  0  0  0  0
  1  2  1  0
  2  3  1  0
  3  4  1  0
  4  5  1  0
  5  6  1  0
  6  7  1  0
  7  8  2  0
  8  9  1  0
  9 10  2  0
 10 11  1  0
 11 12  2  0
  4 13  1  0
 13 14  1  0
 14 15  1  0
 14 16  2  0
 16 17  1  0
 17 18  1  0
 18 19  1  0
 17 20  1  0
 20 21  2  0
 21 22  1  0
 22 23  2  0
 23 24  1  0
 24 25  1  0
 25 26  1  0
 26 27  2  0
 26 28  2  0
 26 29  1  0
 29 30  2  0
 30 31  1  0
 31 32  2  0
 32 33  1  0
 33 34  3  0
 32 35  1  0
 35 36  2  0
 24 37  2  0
 16 38  1  0
 38 39  2  0
 38 40  1  0
 12  7  1  0
 36 29  1  0
 37 20  1  0
 40  4  1  0
  1 41  1  0
  1 42  1  0
  1 43  1  0
  2 44  1  0
  2 45  1  0
  3 46  1  0
  3 47  1  0
  5 48  1  0
  5 49  1  0
  6 50  1  0
  6 51  1  0
  8 52  1  0
  9 53  1  0
 10 54  1  0
 11 55  1  0
 12 56  1  0
 15 57  1  0
 17 58  1  0
 18 59  1  0
 18 60  1  0
 19 61  1  0
 19 62  1  0
 19 63  1  0
 21 64  1  0
 22 65  1  0
 23 66  1  0
 25 67  1  0
 30 68  1  0
 31 69  1  0
 35 70  1  0
 36 71  1  0
 37 72  1  0
M  END
$$$$
