
     RDKit          3D

 69 74  0  0  0  0  0  0  0  0999 V2000
   -0.6038   -0.0382   -3.1006 O   0  0  0  0  0  0  0  0  0  0  0  0
   -1.4862   -0.2196   -2.0321 C   0  0  0  0  0  0  0  0  0  0  0  0
   -2.7107    0.2679   -2.1821 O   0  0  0  0  0  0  0  0  0  0  0  0
   -3.6804    0.1351   -1.2861 C   0  0  0  0  0  0  0  0  0  0  0  0
   -4.9827    0.8359   -1.5680 C   0  0  0  0  0  0  0  0  0  0  0  0
   -5.0381    2.1789   -0.8127 C   0  0  0  0  0  0  0  0  0  0  0  0
   -6.1441    2.2690    0.2522 C   0  0  0  0  0  0  0  0  0  0  0  0
   -6.2825    1.0691    1.2109 C   0  0  0  0  0  0  0  0  0  0  0  0
   -4.9534    0.4503    1.6977 C   0  0  0  0  0  0  0  0  0  0  0  0
   -4.5550   -0.8225    0.9164 C   0  0  0  0  0  0  0  0  0  0  0  0
   -3.4473   -0.5805   -0.0945 C   0  0  0  0  0  0  0  0  0  0  0  0
   -2.1501   -1.0812    0.1281 C   0  0  0  0  0  0  0  0  0  0  0  0
   -1.8980   -1.7061    1.1946 O   0  0  0  0  0  0  0  0  0  0  0  0
   -1.1304   -0.8865   -0.8314 C   0  0  0  0  0  0  0  0  0  0  0  0
    0.2940   -1.3647   -0.5497 C   0  0  0  0  0  0  0  0  0  0  0  0
    0.3526   -2.9097   -0.5815 C   0  0  0  0  0  0  0  0  0  0  0  0
    0.6994   -3.5328   -1.9271 C   0  0  0  0  0  0  0  0  0  0  0  0
    1.7355   -3.5035   -0.8147 C   0  0  0  0  0  0  0  0  0  0  0  0
    0.8279   -0.7545    0.7400 C   0  0  0  0  0  0  0  0  0  0  0  0
    1.0197   -1.4962    1.9237 C   0  0  0  0  0  0  0  0  0  0  0  0
    1.5672   -0.8887    3.0565 C   0  0  0  0  0  0  0  0  0  0  0  0
    1.9602    0.4503    3.0163 C   0  0  0  0  0  0  0  0  0  0  0  0
    1.7909    1.2007    1.8459 C   0  0  0  0  0  0  0  0  0  0  0  0
    2.3126    2.5370    1.7771 N   0  0  0  0  0  0  0  0  0  0  0  0
    2.9828    3.2061    0.3179 S   0  0  0  0  0  0  0  0  0  0  0  0
    1.9373    4.0662   -0.3353 O   0  0  0  0  0  0  0  0  0  0  0  0
    4.1710    4.0610    0.6577 O   0  0  0  0  0  0  0  0  0  0  0  0
    3.5070    1.9172   -0.7896 C   0  0  0  0  0  0  0  0  0  0  0  0
    2.9642    1.8934   -2.0851 C   0  0  0  0  0  0  0  0  0  0  0  0
    3.2186    0.8289   -2.9482 C   0  0  0  0  0  0  0  0  0  0  0  0
    4.0176   -0.2343   -2.5363 C   0  0  0  0  0  0  0  0  0  0  0  0
    4.5914   -0.2319   -1.2583 C   0  0  0  0  0  0  0  0  0  0  0  0
    5.3902   -1.3110   -0.8491 C   0  0  0  0  0  0  0  0  0  0  0  0
    5.9640   -1.3190    0.4221 C   0  0  0  0  0  0  0  0  0  0  0  0
    5.7544   -0.2493    1.2913 C   0  0  0  0  0  0  0  0  0  0  0  0
    4.9629    0.8330    0.8999 C   0  0  0  0  0  0  0  0  0  0  0  0
    4.3558    0.8565   -0.3739 C   0  0  0  0  0  0  0  0  0  0  0  0
    1.1664    0.6087    0.7375 C   0  0  0  0  0  0  0  0  0  0  0  0
    0.2888   -0.4968   -3.2021 H   0  0  0  0  0  0  0  0  0  0  0  0
   -5.0417    1.0383   -2.6600 H   0  0  0  0  0  0  0  0  0  0  0  0
   -5.8493    0.1815   -1.3449 H   0  0  0  0  0  0  0  0  0  0  0  0
   -5.2143    2.9935   -1.5493 H   0  0  0  0  0  0  0  0  0  0  0  0
   -4.0601    2.4196   -0.3387 H   0  0  0  0  0  0  0  0  0  0  0  0
   -5.9593    3.1845    0.8561 H   0  0  0  0  0  0  0  0  0  0  0  0
   -7.1199    2.4171   -0.2600 H   0  0  0  0  0  0  0  0  0  0  0  0
   -6.9414    0.3004    0.7536 H   0  0  0  0  0  0  0  0  0  0  0  0
   -6.8422    1.4301    2.1020 H   0  0  0  0  0  0  0  0  0  0  0  0
   -5.0973    0.1556    2.7610 H   0  0  0  0  0  0  0  0  0  0  0  0
   -4.1332    1.2004    1.7064 H   0  0  0  0  0  0  0  0  0  0  0  0
   -4.2433   -1.5930    1.6536 H   0  0  0  0  0  0  0  0  0  0  0  0
   -5.4226   -1.2875    0.4034 H   0  0  0  0  0  0  0  0  0  0  0  0
    0.9900   -0.9841   -1.3192 H   0  0  0  0  0  0  0  0  0  0  0  0
   -0.3248   -3.5198    0.0534 H   0  0  0  0  0  0  0  0  0  0  0  0
    0.9225   -2.8349   -2.7611 H   0  0  0  0  0  0  0  0  0  0  0  0
    0.2580   -4.5371   -2.0987 H   0  0  0  0  0  0  0  0  0  0  0  0
    1.9006   -4.4853   -0.3233 H   0  0  0  0  0  0  0  0  0  0  0  0
    2.5587   -2.7751   -0.9790 H   0  0  0  0  0  0  0  0  0  0  0  0
    0.7518   -2.5419    1.9818 H   0  0  0  0  0  0  0  0  0  0  0  0
    1.7121   -1.4656    3.9607 H   0  0  0  0  0  0  0  0  0  0  0  0
    2.4277    0.8938    3.8863 H   0  0  0  0  0  0  0  0  0  0  0  0
    2.5147    3.0457    2.6667 H   0  0  0  0  0  0  0  0  0  0  0  0
    2.3123    2.6873   -2.4242 H   0  0  0  0  0  0  0  0  0  0  0  0
    2.7779    0.8198   -3.9368 H   0  0  0  0  0  0  0  0  0  0  0  0
    4.1876   -1.0596   -3.2177 H   0  0  0  0  0  0  0  0  0  0  0  0
    5.5680   -2.1497   -1.5118 H   0  0  0  0  0  0  0  0  0  0  0  0
    6.5773   -2.1549    0.7328 H   0  0  0  0  0  0  0  0  0  0  0  0
    6.2082   -0.2576    2.2739 H   0  0  0  0  0  0  0  0  0  0  0  0
    4.8377    1.6426    1.6037 H   0  0  0  0  0  0  0  0  0  0  0  0
    0.9742    1.1976   -0.1494 H   0  0  0  0  0  0  0  0  0  0  0  0
  1  2  1  0
  2  3  1  0
  3  4  1  0
  4  5  1  0
  5  6  1  0
  6  7  1  0
  7  8  1  0
  8  9  1  0
  9 10  1  0
 10 11  1  0
 11 12  1  0
 12 13  2  0
 12 14  1  0
 14 15  1  0
 15 16  1  0
 16 17  1  0
 17 18  1  0
 15 19  1  0
 19 20  2  0
 20 21  1  0
 21 22  2  0
 22 23  1  0
 23 24  1  0
 24 25  1  0
 25 26  2  0
 25 27  2  0
 25 28  1  0
 28 29  2  0
 29 30  1  0
 30 31  2  0
 31 32  1  0
 32 33  2  0
 33 34  1  0
 34 35  2  0
 35 36  1  0
 36 37  2  0
 23 38  2  0
 11  4  2  0
 14  2  2  0
 18 16  1  0
 37 28  1  0
 37 32  1  0
 38 19  1  0
  1 39  1  0
  5 40  1  0
  5 41  1  0
  6 42  1  0
  6 43  1  0
  7 44  1  0
  7 45  1  0
  8 46  1  0
  8 47  1  0
  9 48  1  0
  9 49  1  0
 10 50  1  0
 10 51  1  0
 15 52  1  0
 16 53  1  0
 17 54  1  0
 17 55  1  0
 18 56  1  0
 18 57  1  0
 20 58  1  0
 21 59  1  0
 22 60  1  0
 24 61  1  0
 29 62  1  0
 30 63  1  0
 31 64  1  0
 33 65  1  0
 34 66  1  0
 35 67  1  0
 36 68  1  0
 38 69  1  0
M  END
$$$$
