
     RDKit          3D

 86 90  0  0  0  0  0  0  0  0999 V2000
    2.1100    0.3789    1.8785 O   0  0  0  0  0  0  0  0  0  0  0  0
    1.0643    1.2279    1.4821 C   0  0  2  0  0  0  0  0  0  0  0  0
   -0.2515    0.7837    2.1707 C   0  0  1  0  0  0  0  0  0  0  0  0
   -1.2742    1.7176    1.9380 O   0  0  0  0  0  0  0  0  0  0  0  0
   -0.7157   -0.6236    1.7471 C   0  0  1  0  0  0  0  0  0  0  0  0
   -1.8182   -1.1629    2.6959 C   0  0  0  0  0  0  0  0  0  0  0  0
   -2.2303   -2.5797    2.3731 C   0  0  0  0  0  0  0  0  0  0  0  0
   -3.5560   -2.8690    2.0052 C   0  0  0  0  0  0  0  0  0  0  0  0
   -3.9400   -4.1836    1.7238 C   0  0  0  0  0  0  0  0  0  0  0  0
   -3.0098   -5.2214    1.8211 C   0  0  0  0  0  0  0  0  0  0  0  0
   -1.6945   -4.9469    2.2039 C   0  0  0  0  0  0  0  0  0  0  0  0
   -1.3056   -3.6337    2.4847 C   0  0  0  0  0  0  0  0  0  0  0  0
   -1.0866   -0.6460    0.3154 N   0  0  0  0  0  0  0  0  0  0  0  0
   -2.4810   -0.4855   -0.1632 C   0  0  0  0  0  0  0  0  0  0  0  0
   -2.6075    0.2885   -1.5081 C   0  0  0  0  0  0  0  0  0  0  0  0
   -2.6613    1.8306   -1.2992 C   0  0  0  0  0  0  0  0  0  0  0  0
   -4.0812    2.3961   -1.4178 C   0  0  0  0  0  0  0  0  0  0  0  0
   -4.6951    2.1057   -2.8001 C   0  0  0  0  0  0  0  0  0  0  0  0
   -4.2494    0.7551   -3.3955 C   0  0  0  0  0  0  0  0  0  0  0  0
   -3.8314   -0.2344   -2.3039 C   0  0  0  0  0  0  0  0  0  0  0  0
   -0.0135   -0.9472   -0.6004 C   0  0  0  0  0  0  0  0  0  0  0  0
   -0.0059   -2.0648   -1.2716 N   0  0  0  0  0  0  0  0  0  0  0  0
   -0.9880   -3.0629   -1.1834 C   0  0  0  0  0  0  0  0  0  0  0  0
   -1.7954   -3.8891   -1.1154 N   0  0  0  0  0  0  0  0  0  0  0  0
    1.1034   -0.0278   -0.7170 N   0  0  0  0  0  0  0  0  0  0  0  0
    2.2712   -0.4217   -1.5485 C   0  0  0  0  0  0  0  0  0  0  0  0
    3.4317   -0.9879   -0.7052 C   0  0  0  0  0  0  0  0  0  0  0  0
    3.0209   -2.2750    0.0424 C   0  0  0  0  0  0  0  0  0  0  0  0
    4.1927   -2.8422    0.8522 C   0  0  0  0  0  0  0  0  0  0  0  0
    5.4049   -3.1092   -0.0466 C   0  0  0  0  0  0  0  0  0  0  0  0
    5.8219   -1.8385   -0.7951 C   0  0  0  0  0  0  0  0  0  0  0  0
    4.6517   -1.2694   -1.6070 C   0  0  0  0  0  0  0  0  0  0  0  0
    0.9744    1.3146   -0.0770 C   0  0  2  0  0  0  0  0  0  0  0  0
    1.9561    2.3726   -0.6523 C   0  0  0  0  0  0  0  0  0  0  0  0
    1.6687    3.7698   -0.1536 C   0  0  0  0  0  0  0  0  0  0  0  0
    2.5364    4.3947    0.7592 C   0  0  0  0  0  0  0  0  0  0  0  0
    2.2541    5.6795    1.2332 C   0  0  0  0  0  0  0  0  0  0  0  0
    1.1074    6.3503    0.7998 C   0  0  0  0  0  0  0  0  0  0  0  0
    0.2413    5.7381   -0.1100 C   0  0  0  0  0  0  0  0  0  0  0  0
    0.5197    4.4540   -0.5873 C   0  0  0  0  0  0  0  0  0  0  0  0
    2.9335    0.9317    1.9250 H   0  0  0  0  0  0  0  0  0  0  0  0
    1.2571    2.2436    1.8962 H   0  0  0  0  0  0  0  0  0  0  0  0
   -0.0435    0.7495    3.2672 H   0  0  0  0  0  0  0  0  0  0  0  0
   -1.0649    2.5214    2.4819 H   0  0  0  0  0  0  0  0  0  0  0  0
    0.1535   -1.3017    1.8983 H   0  0  0  0  0  0  0  0  0  0  0  0
   -1.4254   -1.1618    3.7362 H   0  0  0  0  0  0  0  0  0  0  0  0
   -2.6957   -0.4831    2.7103 H   0  0  0  0  0  0  0  0  0  0  0  0
   -4.2912   -2.0776    1.9293 H   0  0  0  0  0  0  0  0  0  0  0  0
   -4.9599   -4.3979    1.4319 H   0  0  0  0  0  0  0  0  0  0  0  0
   -3.3089   -6.2385    1.6034 H   0  0  0  0  0  0  0  0  0  0  0  0
   -0.9764   -5.7524    2.2860 H   0  0  0  0  0  0  0  0  0  0  0  0
   -0.2861   -3.4418    2.7939 H   0  0  0  0  0  0  0  0  0  0  0  0
   -3.1004    0.0346    0.5950 H   0  0  0  0  0  0  0  0  0  0  0  0
   -2.9228   -1.4949   -0.2782 H   0  0  0  0  0  0  0  0  0  0  0  0
   -1.7234    0.0774   -2.1456 H   0  0  0  0  0  0  0  0  0  0  0  0
   -2.0227    2.3256   -2.0639 H   0  0  0  0  0  0  0  0  0  0  0  0
   -2.2581    2.1193   -0.3107 H   0  0  0  0  0  0  0  0  0  0  0  0
   -4.0606    3.4941   -1.2457 H   0  0  0  0  0  0  0  0  0  0  0  0
   -4.7172    1.9447   -0.6246 H   0  0  0  0  0  0  0  0  0  0  0  0
   -5.8027    2.1203   -2.7046 H   0  0  0  0  0  0  0  0  0  0  0  0
   -4.4135    2.9176   -3.5057 H   0  0  0  0  0  0  0  0  0  0  0  0
   -3.3897    0.9173   -4.0827 H   0  0  0  0  0  0  0  0  0  0  0  0
   -5.0793    0.3205   -3.9936 H   0  0  0  0  0  0  0  0  0  0  0  0
   -4.6972   -0.4006   -1.6242 H   0  0  0  0  0  0  0  0  0  0  0  0
   -3.5794   -1.2118   -2.7708 H   0  0  0  0  0  0  0  0  0  0  0  0
    1.9798   -1.1683   -2.3176 H   0  0  0  0  0  0  0  0  0  0  0  0
    2.6384    0.4269   -2.1541 H   0  0  0  0  0  0  0  0  0  0  0  0
    3.7362   -0.2192    0.0336 H   0  0  0  0  0  0  0  0  0  0  0  0
    2.1885   -2.0618    0.7436 H   0  0  0  0  0  0  0  0  0  0  0  0
    2.6700   -3.0416   -0.6834 H   0  0  0  0  0  0  0  0  0  0  0  0
    4.4727   -2.1256    1.6556 H   0  0  0  0  0  0  0  0  0  0  0  0
    3.8785   -3.7923    1.3355 H   0  0  0  0  0  0  0  0  0  0  0  0
    6.2536   -3.4629    0.5773 H   0  0  0  0  0  0  0  0  0  0  0  0
    5.1591   -3.9106   -0.7778 H   0  0  0  0  0  0  0  0  0  0  0  0
    6.6629   -2.0769   -1.4813 H   0  0  0  0  0  0  0  0  0  0  0  0
    6.1787   -1.0760   -0.0681 H   0  0  0  0  0  0  0  0  0  0  0  0
    4.3759   -1.9902   -2.4088 H   0  0  0  0  0  0  0  0  0  0  0  0
    4.9833   -0.3263   -2.0939 H   0  0  0  0  0  0  0  0  0  0  0  0
   -0.0280    1.7027   -0.3367 H   0  0  0  0  0  0  0  0  0  0  0  0
    1.8496    2.4093   -1.7575 H   0  0  0  0  0  0  0  0  0  0  0  0
    3.0044    2.0875   -0.4181 H   0  0  0  0  0  0  0  0  0  0  0  0
    3.4246    3.8844    1.1106 H   0  0  0  0  0  0  0  0  0  0  0  0
    2.9235    6.1543    1.9387 H   0  0  0  0  0  0  0  0  0  0  0  0
    0.8901    7.3443    1.1687 H   0  0  0  0  0  0  0  0  0  0  0  0
   -0.6463    6.2587   -0.4457 H   0  0  0  0  0  0  0  0  0  0  0  0
   -0.1595    3.9928   -1.2931 H   0  0  0  0  0  0  0  0  0  0  0  0
  1  2  1  0
  2  3  1  0
  3  4  1  0
  3  5  1  0
  5  6  1  0
  6  7  1  0
  7  8  2  0
  8  9  1  0
  9 10  2  0
 10 11  1  0
 11 12  2  0
  5 13  1  0
 13 14  1  0
 14 15  1  0
 15 16  1  0
 16 17  1  0
 17 18  1  0
 18 19  1  0
 19 20  1  0
 13 21  1  0
 21 22  2  3
 22 23  1  0
 23 24  3  0
 21 25  1  0
 25 26  1  0
 26 27  1  0
 27 28  1  0
 28 29  1  0
 29 30  1  0
 30 31  1  0
 31 32  1  0
 25 33  1  0
 33 34  1  0
 34 35  1  0
 35 36  2  0
 36 37  1  0
 37 38  2  0
 38 39  1  0
 39 40  2  0
 12  7  1  0
 20 15  1  0
 32 27  1  0
 33  2  1  0
 40 35  1  0
  1 41  1  0
  2 42  1  1
  3 43  1  1
  4 44  1  0
  5 45  1  6
  6 46  1  0
  6 47  1  0
  8 48  1  0
  9 49  1  0
 10 50  1  0
 11 51  1  0
 12 52  1  0
 14 53  1  0
 14 54  1  0
 15 55  1  0
 16 56  1  0
 16 57  1  0
 17 58  1  0
 17 59  1  0
 18 60  1  0
 18 61  1  0
 19 62  1  0
 19 63  1  0
 20 64  1  0
 20 65  1  0
 26 66  1  0
 26 67  1  0
 27 68  1  0
 28 69  1  0
 28 70  1  0
 29 71  1  0
 29 72  1  0
 30 73  1  0
 30 74  1  0
 31 75  1  0
 31 76  1  0
 32 77  1  0
 32 78  1  0
 33 79  1  1
 34 80  1  0
 34 81  1  0
 36 82  1  0
 37 83  1  0
 38 84  1  0
 39 85  1  0
 40 86  1  0
M  END
$$$$
