
     RDKit          3D

 74 77  0  0  0  0  0  0  0  0999 V2000
   -6.0176    3.6359    1.2159 C   0  0  0  0  0  0  0  0  0  0  0  0
   -5.1602    3.6304    0.0792 O   0  0  0  0  0  0  0  0  0  0  0  0
   -4.5779    2.4773   -0.4672 C   0  0  0  0  0  0  0  0  0  0  0  0
   -3.7463    2.6176   -1.5844 C   0  0  0  0  0  0  0  0  0  0  0  0
   -3.1365    1.5000   -2.1609 C   0  0  0  0  0  0  0  0  0  0  0  0
   -3.3543    0.2239   -1.6250 C   0  0  0  0  0  0  0  0  0  0  0  0
   -2.5559   -1.1856   -2.3161 S   0  0  0  0  0  0  0  0  0  0  0  0
   -3.5675   -2.2886   -2.4550 O   0  0  0  0  0  0  0  0  0  0  0  0
   -2.0351   -0.8547   -3.6874 O   0  0  0  0  0  0  0  0  0  0  0  0
   -1.2383   -1.7417   -1.3174 N   0  0  0  0  0  0  0  0  0  0  0  0
   -0.1776   -0.7210   -1.1675 C   0  0  0  0  0  0  0  0  0  0  0  0
   -0.3533    0.2403    0.0429 C   0  0  1  0  0  0  0  0  0  0  0  0
   -0.1338   -0.4733    1.2337 O   0  0  0  0  0  0  0  0  0  0  0  0
    0.6249    1.4480   -0.0109 C   0  0  2  0  0  0  0  0  0  0  0  0
    0.1643    2.5187   -1.0238 C   0  0  0  0  0  0  0  0  0  0  0  0
    1.0212    3.7561   -0.9412 C   0  0  0  0  0  0  0  0  0  0  0  0
    2.0859    3.9478   -1.8382 C   0  0  0  0  0  0  0  0  0  0  0  0
    2.8952    5.0837   -1.7380 C   0  0  0  0  0  0  0  0  0  0  0  0
    2.6516    6.0321   -0.7408 C   0  0  0  0  0  0  0  0  0  0  0  0
    1.5993    5.8452    0.1595 C   0  0  0  0  0  0  0  0  0  0  0  0
    0.7877    4.7106    0.0633 C   0  0  0  0  0  0  0  0  0  0  0  0
    1.9900    0.9988   -0.3134 N   0  0  0  0  0  0  0  0  0  0  0  0
    2.8175    0.3547    0.6605 C   0  0  0  0  0  0  0  0  0  0  0  0
    2.5406    0.4392    1.8887 O   0  0  0  0  0  0  0  0  0  0  0  0
    3.9247   -0.3838    0.2332 O   0  0  0  0  0  0  0  0  0  0  0  0
    4.6883   -1.2131    1.1083 C   0  0  0  0  0  0  0  0  0  0  0  0
    5.8702   -1.7937    0.3960 C   0  0  0  0  0  0  0  0  0  0  0  0
    6.0298   -3.1473    1.0578 C   0  0  0  0  0  0  0  0  0  0  0  0
    4.8006   -3.5422    1.6248 O   0  0  0  0  0  0  0  0  0  0  0  0
    3.9140   -2.4511    1.5291 C   0  0  0  0  0  0  0  0  0  0  0  0
   -1.7413   -2.1017   -0.1043 O   0  0  0  0  0  0  0  0  0  0  0  0
   -1.5570   -3.4949    0.0154 C   0  0  0  0  0  0  0  0  0  0  0  0
   -2.3658   -4.0280    1.1853 C   0  0  0  0  0  0  0  0  0  0  0  0
   -1.6208   -5.2645    1.6718 C   0  0  0  0  0  0  0  0  0  0  0  0
   -0.1880   -5.1484    1.1536 C   0  0  0  0  0  0  0  0  0  0  0  0
   -0.1139   -3.8545    0.3539 C   0  0  0  0  0  0  0  0  0  0  0  0
   -4.1899    0.0755   -0.5109 C   0  0  0  0  0  0  0  0  0  0  0  0
   -4.7986    1.1931    0.0674 C   0  0  0  0  0  0  0  0  0  0  0  0
   -6.3298    4.6786    1.4295 H   0  0  0  0  0  0  0  0  0  0  0  0
   -5.4796    3.2372    2.1018 H   0  0  0  0  0  0  0  0  0  0  0  0
   -6.9243    3.0276    1.0132 H   0  0  0  0  0  0  0  0  0  0  0  0
   -3.5647    3.5995   -2.0026 H   0  0  0  0  0  0  0  0  0  0  0  0
   -2.4839    1.6351   -3.0136 H   0  0  0  0  0  0  0  0  0  0  0  0
    0.7873   -1.2588   -1.0492 H   0  0  0  0  0  0  0  0  0  0  0  0
   -0.0786   -0.1426   -2.1089 H   0  0  0  0  0  0  0  0  0  0  0  0
   -1.3920    0.6319    0.0471 H   0  0  0  0  0  0  0  0  0  0  0  0
   -0.5759    0.0339    1.9641 H   0  0  0  0  0  0  0  0  0  0  0  0
    0.6190    1.9356    0.9904 H   0  0  0  0  0  0  0  0  0  0  0  0
   -0.8875    2.8041   -0.8070 H   0  0  0  0  0  0  0  0  0  0  0  0
    0.1821    2.1160   -2.0586 H   0  0  0  0  0  0  0  0  0  0  0  0
    2.2897    3.2192   -2.6128 H   0  0  0  0  0  0  0  0  0  0  0  0
    3.7128    5.2277   -2.4325 H   0  0  0  0  0  0  0  0  0  0  0  0
    3.2796    6.9102   -0.6643 H   0  0  0  0  0  0  0  0  0  0  0  0
    1.4139    6.5782    0.9339 H   0  0  0  0  0  0  0  0  0  0  0  0
   -0.0206    4.5739    0.7712 H   0  0  0  0  0  0  0  0  0  0  0  0
    2.3087    0.9766   -1.3086 H   0  0  0  0  0  0  0  0  0  0  0  0
    5.0289   -0.6396    2.0005 H   0  0  0  0  0  0  0  0  0  0  0  0
    5.6482   -1.9292   -0.6864 H   0  0  0  0  0  0  0  0  0  0  0  0
    6.7774   -1.1629    0.5195 H   0  0  0  0  0  0  0  0  0  0  0  0
    6.3611   -3.9053    0.3162 H   0  0  0  0  0  0  0  0  0  0  0  0
    6.7923   -3.0853    1.8645 H   0  0  0  0  0  0  0  0  0  0  0  0
    3.1304   -2.6952    0.7781 H   0  0  0  0  0  0  0  0  0  0  0  0
    3.4209   -2.2832    2.5101 H   0  0  0  0  0  0  0  0  0  0  0  0
   -1.8786   -4.0353   -0.9080 H   0  0  0  0  0  0  0  0  0  0  0  0
   -3.4054   -4.2740    0.8773 H   0  0  0  0  0  0  0  0  0  0  0  0
   -2.3979   -3.2723    2.0023 H   0  0  0  0  0  0  0  0  0  0  0  0
   -1.6397   -5.3210    2.7821 H   0  0  0  0  0  0  0  0  0  0  0  0
   -2.0992   -6.1796    1.2582 H   0  0  0  0  0  0  0  0  0  0  0  0
    0.0480   -6.0138    0.4958 H   0  0  0  0  0  0  0  0  0  0  0  0
    0.5390   -5.1294    1.9948 H   0  0  0  0  0  0  0  0  0  0  0  0
    0.3428   -3.0608    0.9845 H   0  0  0  0  0  0  0  0  0  0  0  0
    0.4951   -3.9820   -0.5673 H   0  0  0  0  0  0  0  0  0  0  0  0
   -4.3611   -0.9045   -0.0834 H   0  0  0  0  0  0  0  0  0  0  0  0
   -5.4344    1.0487    0.9301 H   0  0  0  0  0  0  0  0  0  0  0  0
  1  2  1  0
  2  3  1  0
  3  4  2  0
  4  5  1  0
  5  6  2  0
  6  7  1  0
  7  8  2  0
  7  9  2  0
  7 10  1  0
 10 11  1  0
 11 12  1  0
 12 13  1  0
 12 14  1  0
 14 15  1  0
 15 16  1  0
 16 17  2  0
 17 18  1  0
 18 19  2  0
 19 20  1  0
 20 21  2  0
 14 22  1  0
 22 23  1  0
 23 24  2  0
 23 25  1  0
 25 26  1  0
 26 27  1  0
 27 28  1  0
 28 29  1  0
 29 30  1  0
 10 31  1  0
 31 32  1  0
 32 33  1  0
 33 34  1  0
 34 35  1  0
 35 36  1  0
  6 37  1  0
 37 38  2  0
 21 16  1  0
 30 26  1  0
 36 32  1  0
 38  3  1  0
  1 39  1  0
  1 40  1  0
  1 41  1  0
  4 42  1  0
  5 43  1  0
 11 44  1  0
 11 45  1  0
 12 46  1  1
 13 47  1  0
 14 48  1  1
 15 49  1  0
 15 50  1  0
 17 51  1  0
 18 52  1  0
 19 53  1  0
 20 54  1  0
 21 55  1  0
 22 56  1  0
 26 57  1  0
 27 58  1  0
 27 59  1  0
 28 60  1  0
 28 61  1  0
 30 62  1  0
 30 63  1  0
 32 64  1  0
 33 65  1  0
 33 66  1  0
 34 67  1  0
 34 68  1  0
 35 69  1  0
 35 70  1  0
 36 71  1  0
 36 72  1  0
 37 73  1  0
 38 74  1  0
M  END
$$$$
