
     RDKit          3D

 63 66  0  0  0  0  0  0  0  0999 V2000
    0.7973   -4.8088   -2.8986 C   0  0  0  0  0  0  0  0  0  0  0  0
    1.3794   -3.9935   -1.7423 C   0  0  0  0  0  0  0  0  0  0  0  0
    0.9588   -2.5055   -1.8048 C   0  0  0  0  0  0  0  0  0  0  0  0
   -0.5172   -2.3379   -1.4926 C   0  0  0  0  0  0  0  0  0  0  0  0
   -1.4292   -2.0767   -2.5296 C   0  0  0  0  0  0  0  0  0  0  0  0
   -2.7829   -1.8865   -2.2487 C   0  0  0  0  0  0  0  0  0  0  0  0
   -3.2401   -1.9400   -0.9314 C   0  0  0  0  0  0  0  0  0  0  0  0
   -2.3444   -2.1926    0.1193 C   0  0  0  0  0  0  0  0  0  0  0  0
   -2.7876   -2.1980    1.4832 N   0  0  0  0  0  0  0  0  0  0  0  0
   -3.9082   -1.0152    2.0765 S   0  0  0  0  0  0  0  0  0  0  0  0
   -3.8830   -1.0168    3.5793 O   0  0  0  0  0  0  0  0  0  0  0  0
   -5.3009   -1.3540    1.6238 O   0  0  0  0  0  0  0  0  0  0  0  0
   -3.4326    0.5792    1.4959 C   0  0  0  0  0  0  0  0  0  0  0  0
   -2.4033    1.2786    2.1411 C   0  0  0  0  0  0  0  0  0  0  0  0
   -1.9911    2.5249    1.6606 C   0  0  0  0  0  0  0  0  0  0  0  0
   -2.5880    3.0705    0.5183 C   0  0  0  0  0  0  0  0  0  0  0  0
   -2.1405    4.3400    0.0089 C   0  0  0  0  0  0  0  0  0  0  0  0
   -1.7785    5.3600   -0.4006 N   0  0  0  0  0  0  0  0  0  0  0  0
   -3.6155    2.3738   -0.1300 C   0  0  0  0  0  0  0  0  0  0  0  0
   -4.0398    1.1346    0.3601 C   0  0  0  0  0  0  0  0  0  0  0  0
   -0.9922   -2.4237   -0.1705 C   0  0  0  0  0  0  0  0  0  0  0  0
    1.7942   -1.5382   -0.9524 C   0  0  0  0  0  0  0  0  0  0  0  0
    1.7917   -0.1686   -1.2942 C   0  0  0  0  0  0  0  0  0  0  0  0
    1.0080    0.2421   -2.3802 O   0  0  0  0  0  0  0  0  0  0  0  0
    2.5429    0.7572   -0.5310 C   0  0  0  0  0  0  0  0  0  0  0  0
    2.6070    2.2237   -0.9249 C   0  0  0  0  0  0  0  0  0  0  0  0
    1.4930    3.0525   -0.2675 C   0  0  0  0  0  0  0  0  0  0  0  0
    1.7942    3.4477    1.1906 C   0  0  0  0  0  0  0  0  0  0  0  0
    1.6245    2.2860    2.1919 C   0  0  0  0  0  0  0  0  0  0  0  0
    2.9541    1.7011    2.7032 C   0  0  0  0  0  0  0  0  0  0  0  0
    3.8986    1.1802    1.6098 C   0  0  0  0  0  0  0  0  0  0  0  0
    3.1869    0.2782    0.6343 C   0  0  0  0  0  0  0  0  0  0  0  0
    3.1186   -1.0081    0.9504 O   0  0  0  0  0  0  0  0  0  0  0  0
    2.4723   -1.9122    0.2303 C   0  0  0  0  0  0  0  0  0  0  0  0
    2.4624   -3.0998    0.6446 O   0  0  0  0  0  0  0  0  0  0  0  0
    1.1529   -5.8582   -2.8275 H   0  0  0  0  0  0  0  0  0  0  0  0
    1.1259   -4.3909   -3.8739 H   0  0  0  0  0  0  0  0  0  0  0  0
   -0.3122   -4.8116   -2.8546 H   0  0  0  0  0  0  0  0  0  0  0  0
    2.4874   -4.0674   -1.7987 H   0  0  0  0  0  0  0  0  0  0  0  0
    1.0369   -4.4586   -0.7929 H   0  0  0  0  0  0  0  0  0  0  0  0
    1.1382   -2.1997   -2.8607 H   0  0  0  0  0  0  0  0  0  0  0  0
   -1.0926   -2.0171   -3.5571 H   0  0  0  0  0  0  0  0  0  0  0  0
   -3.4789   -1.6895   -3.0538 H   0  0  0  0  0  0  0  0  0  0  0  0
   -4.2928   -1.7925   -0.7368 H   0  0  0  0  0  0  0  0  0  0  0  0
   -2.2286   -2.7214    2.1936 H   0  0  0  0  0  0  0  0  0  0  0  0
   -1.9174    0.8578    3.0123 H   0  0  0  0  0  0  0  0  0  0  0  0
   -1.2059    3.0618    2.1760 H   0  0  0  0  0  0  0  0  0  0  0  0
   -4.0856    2.7865   -1.0146 H   0  0  0  0  0  0  0  0  0  0  0  0
   -4.8317    0.6060   -0.1540 H   0  0  0  0  0  0  0  0  0  0  0  0
   -0.3047   -2.6275    0.6402 H   0  0  0  0  0  0  0  0  0  0  0  0
    0.7946    1.2058   -2.5965 H   0  0  0  0  0  0  0  0  0  0  0  0
    2.5351    2.3247   -2.0265 H   0  0  0  0  0  0  0  0  0  0  0  0
    3.5970    2.6709   -0.7163 H   0  0  0  0  0  0  0  0  0  0  0  0
    0.5180    2.5215   -0.3348 H   0  0  0  0  0  0  0  0  0  0  0  0
    1.3831    3.9920   -0.8521 H   0  0  0  0  0  0  0  0  0  0  0  0
    1.0696    4.2448    1.4678 H   0  0  0  0  0  0  0  0  0  0  0  0
    2.8030    3.9083    1.2688 H   0  0  0  0  0  0  0  0  0  0  0  0
    1.0785    2.6688    3.0818 H   0  0  0  0  0  0  0  0  0  0  0  0
    0.9873    1.4780    1.7709 H   0  0  0  0  0  0  0  0  0  0  0  0
    3.4885    2.4747    3.2966 H   0  0  0  0  0  0  0  0  0  0  0  0
    2.7182    0.8640    3.3964 H   0  0  0  0  0  0  0  0  0  0  0  0
    4.7035    0.5941    2.1042 H   0  0  0  0  0  0  0  0  0  0  0  0
    4.4235    2.0202    1.1196 H   0  0  0  0  0  0  0  0  0  0  0  0
  1  2  1  0
  2  3  1  0
  3  4  1  0
  4  5  2  0
  5  6  1  0
  6  7  2  0
  7  8  1  0
  8  9  1  0
  9 10  1  0
 10 11  2  0
 10 12  2  0
 10 13  1  0
 13 14  2  0
 14 15  1  0
 15 16  2  0
 16 17  1  0
 17 18  3  0
 16 19  1  0
 19 20  2  0
  8 21  2  0
  3 22  1  0
 22 23  2  0
 23 24  1  0
 23 25  1  0
 25 26  1  0
 26 27  1  0
 27 28  1  0
 28 29  1  0
 29 30  1  0
 30 31  1  0
 31 32  1  0
 32 33  1  0
 33 34  1  0
 34 35  2  0
 20 13  1  0
 21  4  1  0
 32 25  2  0
 34 22  1  0
  1 36  1  0
  1 37  1  0
  1 38  1  0
  2 39  1  0
  2 40  1  0
  3 41  1  0
  5 42  1  0
  6 43  1  0
  7 44  1  0
  9 45  1  0
 14 46  1  0
 15 47  1  0
 19 48  1  0
 20 49  1  0
 21 50  1  0
 24 51  1  0
 26 52  1  0
 26 53  1  0
 27 54  1  0
 27 55  1  0
 28 56  1  0
 28 57  1  0
 29 58  1  0
 29 59  1  0
 30 60  1  0
 30 61  1  0
 31 62  1  0
 31 63  1  0
M  END
$$$$
