
     RDKit          3D

 74 77  0  0  0  0  0  0  0  0999 V2000
    0.5736    5.0738    1.5992 C   0  0  0  0  0  0  0  0  0  0  0  0
    1.6826    4.1826    1.6652 O   0  0  0  0  0  0  0  0  0  0  0  0
    1.9421    3.1716    0.7280 C   0  0  0  0  0  0  0  0  0  0  0  0
    3.0622    2.3541    0.9210 C   0  0  0  0  0  0  0  0  0  0  0  0
    3.3538    1.3245    0.0213 C   0  0  0  0  0  0  0  0  0  0  0  0
    2.5185    1.0910   -1.0787 C   0  0  0  0  0  0  0  0  0  0  0  0
    2.8567   -0.2540   -2.1757 S   0  0  0  0  0  0  0  0  0  0  0  0
    2.0199   -0.1014   -3.4167 O   0  0  0  0  0  0  0  0  0  0  0  0
    4.3028   -0.1823   -2.5775 O   0  0  0  0  0  0  0  0  0  0  0  0
    2.5540   -1.8218   -1.4554 N   0  0  0  0  0  0  0  0  0  0  0  0
    1.6803   -1.7574   -0.2705 C   0  0  0  0  0  0  0  0  0  0  0  0
    0.2072   -1.3687   -0.5930 C   0  0  1  0  0  0  0  0  0  0  0  0
   -0.5381   -2.4792   -1.0339 O   0  0  0  0  0  0  0  0  0  0  0  0
   -0.4835   -0.6520    0.5966 C   0  0  2  0  0  0  0  0  0  0  0  0
   -0.7063   -1.5713    1.8164 C   0  0  0  0  0  0  0  0  0  0  0  0
   -1.1343   -0.7743    3.0217 C   0  0  0  0  0  0  0  0  0  0  0  0
   -0.1805   -0.0682    3.7742 C   0  0  0  0  0  0  0  0  0  0  0  0
   -0.5809    0.7204    4.8569 C   0  0  0  0  0  0  0  0  0  0  0  0
   -1.9343    0.8144    5.1923 C   0  0  0  0  0  0  0  0  0  0  0  0
   -2.8899    0.1209    4.4445 C   0  0  0  0  0  0  0  0  0  0  0  0
   -2.4940   -0.6692    3.3611 C   0  0  0  0  0  0  0  0  0  0  0  0
   -1.7632   -0.0849    0.1561 N   0  0  0  0  0  0  0  0  0  0  0  0
   -2.2035    1.2253    0.5343 C   0  0  0  0  0  0  0  0  0  0  0  0
   -1.4860    1.9514    1.2760 O   0  0  0  0  0  0  0  0  0  0  0  0
   -3.4443    1.6862    0.0839 O   0  0  0  0  0  0  0  0  0  0  0  0
   -3.9597    2.9784    0.4101 C   0  0  0  0  0  0  0  0  0  0  0  0
   -5.3875    3.0804   -0.0319 C   0  0  0  0  0  0  0  0  0  0  0  0
   -5.2711    3.6458   -1.4307 C   0  0  0  0  0  0  0  0  0  0  0  0
   -4.0675    4.3694   -1.5402 O   0  0  0  0  0  0  0  0  0  0  0  0
   -3.2766    4.0608   -0.4144 C   0  0  0  0  0  0  0  0  0  0  0  0
    1.9739   -2.6192   -2.3951 O   0  0  0  0  0  0  0  0  0  0  0  0
    2.9006   -3.6390   -2.6943 C   0  0  0  0  0  0  0  0  0  0  0  0
    2.5348   -4.3070   -4.0087 C   0  0  0  0  0  0  0  0  0  0  0  0
    3.0654   -5.7309   -3.9068 C   0  0  0  0  0  0  0  0  0  0  0  0
    3.2411   -6.0287   -2.4185 C   0  0  0  0  0  0  0  0  0  0  0  0
    2.8476   -4.7629   -1.6673 C   0  0  0  0  0  0  0  0  0  0  0  0
    1.4058    1.9187   -1.2867 C   0  0  0  0  0  0  0  0  0  0  0  0
    1.1183    2.9525   -0.3919 C   0  0  0  0  0  0  0  0  0  0  0  0
    0.6194    5.6721    0.6648 H   0  0  0  0  0  0  0  0  0  0  0  0
    0.6119    5.7648    2.4659 H   0  0  0  0  0  0  0  0  0  0  0  0
   -0.3786    4.5043    1.6410 H   0  0  0  0  0  0  0  0  0  0  0  0
    3.7062    2.5140    1.7764 H   0  0  0  0  0  0  0  0  0  0  0  0
    4.2174    0.6946    0.1936 H   0  0  0  0  0  0  0  0  0  0  0  0
    1.7036   -2.7461    0.2347 H   0  0  0  0  0  0  0  0  0  0  0  0
    2.1226   -1.0599    0.4691 H   0  0  0  0  0  0  0  0  0  0  0  0
    0.2113   -0.6407   -1.4281 H   0  0  0  0  0  0  0  0  0  0  0  0
   -0.4458   -3.2023   -0.3615 H   0  0  0  0  0  0  0  0  0  0  0  0
    0.1945    0.1757    0.9040 H   0  0  0  0  0  0  0  0  0  0  0  0
   -1.4729   -2.3409    1.5791 H   0  0  0  0  0  0  0  0  0  0  0  0
    0.2315   -2.1114    2.0668 H   0  0  0  0  0  0  0  0  0  0  0  0
    0.8699   -0.1211    3.5146 H   0  0  0  0  0  0  0  0  0  0  0  0
    0.1576    1.2635    5.4324 H   0  0  0  0  0  0  0  0  0  0  0  0
   -2.2430    1.4278    6.0289 H   0  0  0  0  0  0  0  0  0  0  0  0
   -3.9385    0.2005    4.7007 H   0  0  0  0  0  0  0  0  0  0  0  0
   -3.2465   -1.1879    2.7803 H   0  0  0  0  0  0  0  0  0  0  0  0
   -2.4350   -0.6952   -0.3618 H   0  0  0  0  0  0  0  0  0  0  0  0
   -3.8701    3.1664    1.5040 H   0  0  0  0  0  0  0  0  0  0  0  0
   -5.9345    3.7980    0.6194 H   0  0  0  0  0  0  0  0  0  0  0  0
   -5.9078    2.0975   -0.0229 H   0  0  0  0  0  0  0  0  0  0  0  0
   -6.1316    4.3122   -1.6528 H   0  0  0  0  0  0  0  0  0  0  0  0
   -5.2618    2.8184   -2.1735 H   0  0  0  0  0  0  0  0  0  0  0  0
   -2.2673    3.7413   -0.7487 H   0  0  0  0  0  0  0  0  0  0  0  0
   -3.1602    4.9793    0.2007 H   0  0  0  0  0  0  0  0  0  0  0  0
    3.9440   -3.2472   -2.7810 H   0  0  0  0  0  0  0  0  0  0  0  0
    1.4282   -4.3343   -4.1281 H   0  0  0  0  0  0  0  0  0  0  0  0
    2.9804   -3.7677   -4.8727 H   0  0  0  0  0  0  0  0  0  0  0  0
    4.0468   -5.8046   -4.4251 H   0  0  0  0  0  0  0  0  0  0  0  0
    2.3570   -6.4477   -4.3766 H   0  0  0  0  0  0  0  0  0  0  0  0
    4.3032   -6.2812   -2.2054 H   0  0  0  0  0  0  0  0  0  0  0  0
    2.6006   -6.8823   -2.1062 H   0  0  0  0  0  0  0  0  0  0  0  0
    3.5378   -4.5635   -0.8190 H   0  0  0  0  0  0  0  0  0  0  0  0
    1.8110   -4.8730   -1.2770 H   0  0  0  0  0  0  0  0  0  0  0  0
    0.7495    1.7579   -2.1318 H   0  0  0  0  0  0  0  0  0  0  0  0
    0.2496    3.5690   -0.5749 H   0  0  0  0  0  0  0  0  0  0  0  0
  1  2  1  0
  2  3  1  0
  3  4  2  0
  4  5  1  0
  5  6  2  0
  6  7  1  0
  7  8  2  0
  7  9  2  0
  7 10  1  0
 10 11  1  0
 11 12  1  0
 12 13  1  0
 12 14  1  0
 14 15  1  0
 15 16  1  0
 16 17  2  0
 17 18  1  0
 18 19  2  0
 19 20  1  0
 20 21  2  0
 14 22  1  0
 22 23  1  0
 23 24  2  0
 23 25  1  0
 25 26  1  0
 26 27  1  0
 27 28  1  0
 28 29  1  0
 29 30  1  0
 10 31  1  0
 31 32  1  0
 32 33  1  0
 33 34  1  0
 34 35  1  0
 35 36  1  0
  6 37  1  0
 37 38  2  0
 21 16  1  0
 30 26  1  0
 36 32  1  0
 38  3  1  0
  1 39  1  0
  1 40  1  0
  1 41  1  0
  4 42  1  0
  5 43  1  0
 11 44  1  0
 11 45  1  0
 12 46  1  6
 13 47  1  0
 14 48  1  1
 15 49  1  0
 15 50  1  0
 17 51  1  0
 18 52  1  0
 19 53  1  0
 20 54  1  0
 21 55  1  0
 22 56  1  0
 26 57  1  0
 27 58  1  0
 27 59  1  0
 28 60  1  0
 28 61  1  0
 30 62  1  0
 30 63  1  0
 32 64  1  0
 33 65  1  0
 33 66  1  0
 34 67  1  0
 34 68  1  0
 35 69  1  0
 35 70  1  0
 36 71  1  0
 36 72  1  0
 37 73  1  0
 38 74  1  0
M  END
$$$$
